/*---------------------------------------------------------------------------*\
  =========                 |
  \\      /  F ield         | OpenFOAM: The Open Source CFD Toolbox
   \\    /   O peration     | Website:  https://openfoam.org
    \\  /    A nd           | Version:  10
     \\/     M anipulation  |
\*---------------------------------------------------------------------------*/
Build  : 10-e450dce21ea5
Exec   : blockMesh
Date   : Feb 20 2023
Time   : 14:07:51
Host   : "w530-R9YK46P"
PID    : 18334
I/O    : uncollated
Case   : /home/jdmezazeron/gitDanielMezaZ/turbulenceVisualized/Data/SimulationFiles/K8_Re247
nProcs : 1
sigFpe : Enabling floating point exception trapping (FOAM_SIGFPE).
fileModificationChecking : Monitoring run-time modified files using timeStampMaster (fileModificationSkew 10)
allowSystemOperations : Allowing user-supplied system call operations

// * * * * * * * * * * * * * * * * * * * * * * * * * * * * * * * * * * * * * //
Create time

Deleting polyMesh directory
    "/home/jdmezazeron/gitDanielMezaZ/turbulenceVisualized/Data/SimulationFiles/K8_Re247/constant/polyMesh"
Reading "blockMeshDict"

Creating block mesh from
    "system/blockMeshDict"
Creating block edges
No non-planar block faces defined
Creating topology blocks
Creating topology patches

Creating block mesh topology

Check topology

	Basic statistics
		Number of internal faces : 0
		Number of boundary faces : 6
		Number of defined boundary faces : 6
		Number of undefined boundary faces : 0
	Checking patch -> block consistency

Creating block offsets
Creating merge list .

Creating polyMesh from blockMesh
Creating patches
Creating cells
Creating points with scale 1
    Block 0 cell size :
        i : 0.5
        j : 0.00461374 .. 0.018455
        k : 2

Detected cyclic patches; ordering boundary faces

Writing polyMesh
----------------
Mesh Information
----------------
  boundingBox: (-1 0 -1) (1 1 1)
  nPoints: 1010
  nCells: 400
  nFaces: 1704
  nInternalFaces: 696
----------------
Patches
----------------
  patch 0 (start: 696 size: 100) name: inlet
  patch 1 (start: 796 size: 100) name: outlet
  patch 2 (start: 896 size: 4) name: fixedWalls-bottom
  patch 3 (start: 900 size: 4) name: fixedWalls-top
  patch 4 (start: 904 size: 800) name: frontAndBack

End

/*---------------------------------------------------------------------------*\
  =========                 |
  \\      /  F ield         | OpenFOAM: The Open Source CFD Toolbox
   \\    /   O peration     | Website:  https://openfoam.org
    \\  /    A nd           | Version:  10
     \\/     M anipulation  |
\*---------------------------------------------------------------------------*/
Build  : 10-e450dce21ea5
Exec   : simpleFoam
Date   : Feb 20 2023
Time   : 14:07:51
Host   : "w530-R9YK46P"
PID    : 18335
I/O    : uncollated
Case   : /home/jdmezazeron/gitDanielMezaZ/turbulenceVisualized/Data/SimulationFiles/K8_Re247
nProcs : 1
sigFpe : Enabling floating point exception trapping (FOAM_SIGFPE).
fileModificationChecking : Monitoring run-time modified files using timeStampMaster (fileModificationSkew 10)
allowSystemOperations : Allowing user-supplied system call operations

// * * * * * * * * * * * * * * * * * * * * * * * * * * * * * * * * * * * * * //
Create time

Create mesh for time = 0


SIMPLE: Convergence criteria found
        U: tolerance 0.0001
        p: tolerance 0.01
        omega: tolerance 0.0001

Reading field p

Reading field U

Reading/calculating face flux field phi

Selecting viscosity model Newtonian
Selecting turbulence model type RAS
Selecting RAS turbulence model kOmegaSST
Selecting patchDistMethod meshWave
RAS
{
    RASModel        kOmegaSST;
    turbulence      on;
    printCoeffs     on;
    alphaK1         0.85;
    alphaK2         1;
    alphaOmega1     0.5;
    alphaOmega2     0.856;
    gamma1          0.555556;
    gamma2          0.44;
    beta1           0.075;
    beta2           0.0828;
    betaStar        0.09;
    a1              0.31;
    b1              1;
    c1              10;
    F3              false;
}

No MRF models present

--> FOAM Warning : Creating fvModels from "system/fvOptions" rather than constant/fvModels
No fvModels present
--> FOAM Warning : Creating fvConstraints from "system/fvOptions"

Selecting finite volume constraint type meanVelocityForce
    Name: momentumSource
    - selecting all cells
    - selected 400 cell(s) with volume 4
    Initial pressure gradient = 0


Starting time loop

turbulenceFields stressComponents: storing fields:
    R

Time = 1s

smoothSolver:  Solving for Ux, Initial residual = 0, Final residual = 0, No Iterations 0
smoothSolver:  Solving for Uy, Initial residual = 0, Final residual = 0, No Iterations 0
Pressure gradient source: uncorrected Ubar = 0, pressure gradient = 1744.2
GAMG:  Solving for p, Initial residual = 0.999996, Final residual = 0.052968, No Iterations 3
time step continuity errors : sum local = 7.11502e-17, global = -5.79962e-18, cumulative = -5.79962e-18
Pressure gradient source: uncorrected Ubar = 0.884648, pressure gradient = 201.197
smoothSolver:  Solving for omega, Initial residual = 0.0958684, Final residual = 0.00579265, No Iterations 3
smoothSolver:  Solving for k, Initial residual = 1, Final residual = 0.0543171, No Iterations 2
ExecutionTime = 0.014014 s  ClockTime = 0 s

Time = 2s

smoothSolver:  Solving for Ux, Initial residual = 0.944899, Final residual = 0.0807771, No Iterations 6
smoothSolver:  Solving for Uy, Initial residual = 1, Final residual = 0.0722806, No Iterations 6
Pressure gradient source: uncorrected Ubar = 13.0084, pressure gradient = -1509.11
GAMG:  Solving for p, Initial residual = 1, Final residual = 0.0922152, No Iterations 16
time step continuity errors : sum local = 0.00561201, global = 6.16301e-18, cumulative = 3.63393e-19
Pressure gradient source: uncorrected Ubar = 2.51446, pressure gradient = -14.5009
smoothSolver:  Solving for omega, Initial residual = 0.198035, Final residual = 0.000783689, No Iterations 1
smoothSolver:  Solving for k, Initial residual = 0.775777, Final residual = 0.0195414, No Iterations 1
ExecutionTime = 0.017179 s  ClockTime = 0 s

Time = 3s

smoothSolver:  Solving for Ux, Initial residual = 0.370298, Final residual = 0.0359168, No Iterations 5
smoothSolver:  Solving for Uy, Initial residual = 0.308784, Final residual = 0.0207531, No Iterations 5
Pressure gradient source: uncorrected Ubar = 0.220664, pressure gradient = 99.4903
GAMG:  Solving for p, Initial residual = 0.220775, Final residual = 0.0206307, No Iterations 9
time step continuity errors : sum local = 0.0023415, global = -6.00377e-18, cumulative = -5.64038e-18
Pressure gradient source: uncorrected Ubar = 0.895312, pressure gradient = 0.811516
smoothSolver:  Solving for omega, Initial residual = 0.00928903, Final residual = 0.000182285, No Iterations 1
smoothSolver:  Solving for k, Initial residual = 0.070019, Final residual = 0.00430366, No Iterations 2
ExecutionTime = 0.019845 s  ClockTime = 0 s

Time = 4s

smoothSolver:  Solving for Ux, Initial residual = 0.0477288, Final residual = 0.00396266, No Iterations 4
smoothSolver:  Solving for Uy, Initial residual = 0.118944, Final residual = 0.00919922, No Iterations 5
Pressure gradient source: uncorrected Ubar = 1.01992, pressure gradient = -1.96013
GAMG:  Solving for p, Initial residual = 0.204876, Final residual = 0.019434, No Iterations 16
time step continuity errors : sum local = 0.00231322, global = -1.13367e-17, cumulative = -1.69771e-17
Pressure gradient source: uncorrected Ubar = 1.00247, pressure gradient = 0.46709
smoothSolver:  Solving for omega, Initial residual = 0.00800173, Final residual = 0.000137932, No Iterations 1
smoothSolver:  Solving for k, Initial residual = 0.0233296, Final residual = 0.00217247, No Iterations 4
ExecutionTime = 0.022941 s  ClockTime = 0 s

Time = 5s

smoothSolver:  Solving for Ux, Initial residual = 0.0285182, Final residual = 0.0026902, No Iterations 4
smoothSolver:  Solving for Uy, Initial residual = 0.124576, Final residual = 0.0113951, No Iterations 5
Pressure gradient source: uncorrected Ubar = 0.998838, pressure gradient = 0.628819
GAMG:  Solving for p, Initial residual = 0.221997, Final residual = 0.0178927, No Iterations 10
time step continuity errors : sum local = 0.00184821, global = -5.14657e-18, cumulative = -2.21236e-17
Pressure gradient source: uncorrected Ubar = 0.999633, pressure gradient = 0.518204
smoothSolver:  Solving for omega, Initial residual = 0.0032744, Final residual = 8.17439e-05, No Iterations 1
smoothSolver:  Solving for k, Initial residual = 0.0265584, Final residual = 0.0021751, No Iterations 5
ExecutionTime = 0.025749 s  ClockTime = 0 s

Time = 6s

smoothSolver:  Solving for Ux, Initial residual = 0.0265199, Final residual = 0.00261416, No Iterations 4
smoothSolver:  Solving for Uy, Initial residual = 0.120816, Final residual = 0.00941515, No Iterations 5
Pressure gradient source: uncorrected Ubar = 0.993848, pressure gradient = 1.42496
GAMG:  Solving for p, Initial residual = 0.216791, Final residual = 0.0182459, No Iterations 18
time step continuity errors : sum local = 0.00116104, global = -8.57875e-18, cumulative = -3.07024e-17
Pressure gradient source: uncorrected Ubar = 0.999024, pressure gradient = 0.66202
smoothSolver:  Solving for omega, Initial residual = 0.00215751, Final residual = 5.33495e-05, No Iterations 1
smoothSolver:  Solving for k, Initial residual = 0.0473242, Final residual = 0.00457382, No Iterations 5
ExecutionTime = 0.028863 s  ClockTime = 0 s

Time = 7s

smoothSolver:  Solving for Ux, Initial residual = 0.026151, Final residual = 0.00182291, No Iterations 5
smoothSolver:  Solving for Uy, Initial residual = 0.088636, Final residual = 0.00566791, No Iterations 5
Pressure gradient source: uncorrected Ubar = 0.998818, pressure gradient = 0.848332
GAMG:  Solving for p, Initial residual = 0.174231, Final residual = 0.0162715, No Iterations 16
time step continuity errors : sum local = 0.000639677, global = 8.31532e-18, cumulative = -2.23871e-17
Pressure gradient source: uncorrected Ubar = 0.999783, pressure gradient = 0.696271
smoothSolver:  Solving for omega, Initial residual = 0.00108986, Final residual = 2.98954e-05, No Iterations 1
smoothSolver:  Solving for k, Initial residual = 0.0685131, Final residual = 0.00481486, No Iterations 6
ExecutionTime = 0.03187 s  ClockTime = 0 s

Time = 8s

smoothSolver:  Solving for Ux, Initial residual = 0.0266557, Final residual = 0.00180954, No Iterations 5
smoothSolver:  Solving for Uy, Initial residual = 0.0974707, Final residual = 0.00618663, No Iterations 5
Pressure gradient source: uncorrected Ubar = 0.997617, pressure gradient = 1.1072
GAMG:  Solving for p, Initial residual = 0.0753068, Final residual = 0.0075254, No Iterations 11
time step continuity errors : sum local = 0.000396752, global = -1.29765e-18, cumulative = -2.36847e-17
Pressure gradient source: uncorrected Ubar = 0.999645, pressure gradient = 0.757503
smoothSolver:  Solving for omega, Initial residual = 0.000637745, Final residual = 1.99485e-05, No Iterations 1
smoothSolver:  Solving for k, Initial residual = 0.0885233, Final residual = 0.00620274, No Iterations 6
ExecutionTime = 0.03468 s  ClockTime = 0 s

Time = 9s

smoothSolver:  Solving for Ux, Initial residual = 0.0273735, Final residual = 0.00180209, No Iterations 5
smoothSolver:  Solving for Uy, Initial residual = 0.105501, Final residual = 0.00684115, No Iterations 5
Pressure gradient source: uncorrected Ubar = 0.997913, pressure gradient = 1.15279
GAMG:  Solving for p, Initial residual = 0.0649518, Final residual = 0.00488103, No Iterations 6
time step continuity errors : sum local = 0.00023707, global = 4.29869e-18, cumulative = -1.9386e-17
Pressure gradient source: uncorrected Ubar = 0.999693, pressure gradient = 0.815626
smoothSolver:  Solving for omega, Initial residual = 0.00034616, Final residual = 1.25235e-05, No Iterations 1
smoothSolver:  Solving for k, Initial residual = 0.0857462, Final residual = 0.00641295, No Iterations 6
ExecutionTime = 0.03734 s  ClockTime = 0 s

Time = 10s

smoothSolver:  Solving for Ux, Initial residual = 0.0260605, Final residual = 0.00171104, No Iterations 5
smoothSolver:  Solving for Uy, Initial residual = 0.107175, Final residual = 0.0067714, No Iterations 5
Pressure gradient source: uncorrected Ubar = 0.999951, pressure gradient = 0.825659
GAMG:  Solving for p, Initial residual = 0.0946864, Final residual = 0.00868855, No Iterations 8
time step continuity errors : sum local = 0.000362952, global = 1.32067e-17, cumulative = -6.1793e-18
Pressure gradient source: uncorrected Ubar = 0.999958, pressure gradient = 0.824329
smoothSolver:  Solving for omega, Initial residual = 0.000196188, Final residual = 8.82679e-06, No Iterations 1
smoothSolver:  Solving for k, Initial residual = 0.055501, Final residual = 0.00429563, No Iterations 6
ExecutionTime = 0.0402 s  ClockTime = 0 s

Time = 11s

smoothSolver:  Solving for Ux, Initial residual = 0.0233968, Final residual = 0.00155768, No Iterations 5
smoothSolver:  Solving for Uy, Initial residual = 0.096916, Final residual = 0.00610338, No Iterations 5
Pressure gradient source: uncorrected Ubar = 1.0022, pressure gradient = 0.336033
GAMG:  Solving for p, Initial residual = 0.0965465, Final residual = 0.00906994, No Iterations 11
time step continuity errors : sum local = 0.000300131, global = -2.56153e-18, cumulative = -8.74083e-18
Pressure gradient source: uncorrected Ubar = 1.00025, pressure gradient = 0.769578
smoothSolver:  Solving for omega, Initial residual = 0.000109912, Final residual = 6.09e-06, No Iterations 1
smoothSolver:  Solving for k, Initial residual = 0.0376183, Final residual = 0.00289946, No Iterations 6
ExecutionTime = 0.043049 s  ClockTime = 0 s

Time = 12s

smoothSolver:  Solving for Ux, Initial residual = 0.0215957, Final residual = 0.00143738, No Iterations 5
smoothSolver:  Solving for Uy, Initial residual = 0.0782577, Final residual = 0.00746124, No Iterations 4
Pressure gradient source: uncorrected Ubar = 1.00186, pressure gradient = 0.332896
GAMG:  Solving for p, Initial residual = 0.104393, Final residual = 0.00921789, No Iterations 12
time step continuity errors : sum local = 0.000222091, global = 2.15688e-17, cumulative = 1.2828e-17
Pressure gradient source: uncorrected Ubar = 1.0002, pressure gradient = 0.72251
smoothSolver:  Solving for omega, Initial residual = 6.2699e-05, Final residual = 4.68802e-06, No Iterations 1
smoothSolver:  Solving for k, Initial residual = 0.0280992, Final residual = 0.00222453, No Iterations 6
ExecutionTime = 0.045938 s  ClockTime = 0 s

Time = 13s

smoothSolver:  Solving for Ux, Initial residual = 0.0203913, Final residual = 0.00135423, No Iterations 5
smoothSolver:  Solving for Uy, Initial residual = 0.0697622, Final residual = 0.00536982, No Iterations 5
Pressure gradient source: uncorrected Ubar = 1.00168, pressure gradient = 0.304833
GAMG:  Solving for p, Initial residual = 0.1043, Final residual = 0.0102576, No Iterations 10
time step continuity errors : sum local = 0.000181246, global = 2.04982e-18, cumulative = 1.48778e-17
Pressure gradient source: uncorrected Ubar = 1.00018, pressure gradient = 0.679026
smoothSolver:  Solving for omega, Initial residual = 3.63839e-05, Final residual = 3.63057e-06, No Iterations 1
smoothSolver:  Solving for k, Initial residual = 0.022185, Final residual = 0.00176447, No Iterations 6
ExecutionTime = 0.048728 s  ClockTime = 0 s

Time = 14s

smoothSolver:  Solving for Ux, Initial residual = 0.0194086, Final residual = 0.00129094, No Iterations 5
smoothSolver:  Solving for Uy, Initial residual = 0.0664149, Final residual = 0.00552246, No Iterations 5
Pressure gradient source: uncorrected Ubar = 1.00145, pressure gradient = 0.299754
GAMG:  Solving for p, Initial residual = 0.101242, Final residual = 0.0100596, No Iterations 6
time step continuity errors : sum local = 0.000138752, global = 4.82639e-18, cumulative = 1.97042e-17
Pressure gradient source: uncorrected Ubar = 1.00015, pressure gradient = 0.641225
smoothSolver:  Solving for omega, Initial residual = 2.16279e-05, Final residual = 3.04461e-06, No Iterations 1
smoothSolver:  Solving for k, Initial residual = 0.0179367, Final residual = 0.00141458, No Iterations 6
ExecutionTime = 0.051304 s  ClockTime = 0 s

Time = 15s

smoothSolver:  Solving for Ux, Initial residual = 0.0185949, Final residual = 0.00124136, No Iterations 5
smoothSolver:  Solving for Uy, Initial residual = 0.0731811, Final residual = 0.0063273, No Iterations 5
Pressure gradient source: uncorrected Ubar = 1.00134, pressure gradient = 0.274872
GAMG:  Solving for p, Initial residual = 0.109625, Final residual = 0.00931139, No Iterations 5
time step continuity errors : sum local = 0.000103677, global = 5.63012e-18, cumulative = 2.53343e-17
Pressure gradient source: uncorrected Ubar = 1.00013, pressure gradient = 0.605817
smoothSolver:  Solving for omega, Initial residual = 1.35199e-05, Final residual = 2.63477e-06, No Iterations 1
smoothSolver:  Solving for k, Initial residual = 0.0145977, Final residual = 0.00117863, No Iterations 6
ExecutionTime = 0.053876 s  ClockTime = 0 s

Time = 16s

smoothSolver:  Solving for Ux, Initial residual = 0.0178833, Final residual = 0.00119905, No Iterations 5
smoothSolver:  Solving for Uy, Initial residual = 0.0904902, Final residual = 0.0077411, No Iterations 5
Pressure gradient source: uncorrected Ubar = 1.00132, pressure gradient = 0.231284
GAMG:  Solving for p, Initial residual = 0.114651, Final residual = 0.00886549, No Iterations 3
time step continuity errors : sum local = 9.24032e-05, global = -1.01782e-18, cumulative = 2.43165e-17
Pressure gradient source: uncorrected Ubar = 1.00013, pressure gradient = 0.570052
smoothSolver:  Solving for omega, Initial residual = 8.84779e-06, Final residual = 8.84779e-06, No Iterations 0
smoothSolver:  Solving for k, Initial residual = 0.0119877, Final residual = 0.000950708, No Iterations 6
ExecutionTime = 0.056437 s  ClockTime = 0 s

Time = 17s

smoothSolver:  Solving for Ux, Initial residual = 0.017163, Final residual = 0.00115568, No Iterations 5
smoothSolver:  Solving for Uy, Initial residual = 0.108668, Final residual = 0.00905206, No Iterations 5
Pressure gradient source: uncorrected Ubar = 1.00145, pressure gradient = 0.139071
GAMG:  Solving for p, Initial residual = 0.129716, Final residual = 0.0113608, No Iterations 5
time step continuity errors : sum local = 0.000106423, global = -1.56538e-18, cumulative = 2.27511e-17
Pressure gradient source: uncorrected Ubar = 1.00014, pressure gradient = 0.527353
smoothSolver:  Solving for omega, Initial residual = 9.08421e-06, Final residual = 9.08421e-06, No Iterations 0
smoothSolver:  Solving for k, Initial residual = 0.00985681, Final residual = 0.000789451, No Iterations 6
ExecutionTime = 0.058968 s  ClockTime = 0 s

Time = 18s

smoothSolver:  Solving for Ux, Initial residual = 0.016435, Final residual = 0.00111019, No Iterations 5
smoothSolver:  Solving for Uy, Initial residual = 0.116458, Final residual = 0.00988027, No Iterations 5
Pressure gradient source: uncorrected Ubar = 1.00118, pressure gradient = 0.165191
GAMG:  Solving for p, Initial residual = 0.142754, Final residual = 0.0127522, No Iterations 5
time step continuity errors : sum local = 0.000107066, global = -1.38903e-18, cumulative = 2.13621e-17
Pressure gradient source: uncorrected Ubar = 1.00011, pressure gradient = 0.493093
smoothSolver:  Solving for omega, Initial residual = 9.32735e-06, Final residual = 9.32735e-06, No Iterations 0
smoothSolver:  Solving for k, Initial residual = 0.00798986, Final residual = 0.000627894, No Iterations 6
ExecutionTime = 0.061525 s  ClockTime = 0 s

Time = 19s

smoothSolver:  Solving for Ux, Initial residual = 0.0155824, Final residual = 0.00106878, No Iterations 5
smoothSolver:  Solving for Uy, Initial residual = 0.115392, Final residual = 0.0103675, No Iterations 5
Pressure gradient source: uncorrected Ubar = 1.00121, pressure gradient = 0.10734
GAMG:  Solving for p, Initial residual = 0.131927, Final residual = 0.0124986, No Iterations 5
time step continuity errors : sum local = 9.56369e-05, global = -2.79179e-18, cumulative = 1.85703e-17
Pressure gradient source: uncorrected Ubar = 1.00012, pressure gradient = 0.455537
smoothSolver:  Solving for omega, Initial residual = 9.57957e-06, Final residual = 9.57957e-06, No Iterations 0
smoothSolver:  Solving for k, Initial residual = 0.00735839, Final residual = 0.000538658, No Iterations 6
ExecutionTime = 0.064045 s  ClockTime = 0 s

Time = 20s

smoothSolver:  Solving for Ux, Initial residual = 0.0148688, Final residual = 0.0010284, No Iterations 5
smoothSolver:  Solving for Uy, Initial residual = 0.107366, Final residual = 0.0103634, No Iterations 5
Pressure gradient source: uncorrected Ubar = 1.00115, pressure gradient = 0.0803839
GAMG:  Solving for p, Initial residual = 0.113757, Final residual = 0.0108301, No Iterations 6
time step continuity errors : sum local = 7.36897e-05, global = 4.32887e-19, cumulative = 1.90032e-17
Pressure gradient source: uncorrected Ubar = 1.00011, pressure gradient = 0.419117
smoothSolver:  Solving for omega, Initial residual = 9.84297e-06, Final residual = 9.84297e-06, No Iterations 0
smoothSolver:  Solving for k, Initial residual = 0.00724383, Final residual = 0.000504257, No Iterations 6
ExecutionTime = 0.066666 s  ClockTime = 0 s

Time = 21s

smoothSolver:  Solving for Ux, Initial residual = 0.0139476, Final residual = 0.000987256, No Iterations 5
smoothSolver:  Solving for Uy, Initial residual = 0.0963291, Final residual = 0.00649922, No Iterations 6
Pressure gradient source: uncorrected Ubar = 1.00116, pressure gradient = 0.0284353
GAMG:  Solving for p, Initial residual = 0.103125, Final residual = 0.0095693, No Iterations 6
time step continuity errors : sum local = 5.75767e-05, global = 4.43751e-18, cumulative = 2.34407e-17
Pressure gradient source: uncorrected Ubar = 1.00012, pressure gradient = 0.380299
smoothSolver:  Solving for omega, Initial residual = 1.00762e-05, Final residual = 3.17182e-06, No Iterations 1
smoothSolver:  Solving for k, Initial residual = 0.00704374, Final residual = 0.000487786, No Iterations 6
ExecutionTime = 0.06929 s  ClockTime = 0 s

Time = 22s

smoothSolver:  Solving for Ux, Initial residual = 0.0133159, Final residual = 0.000957077, No Iterations 5
smoothSolver:  Solving for Uy, Initial residual = 0.0936664, Final residual = 0.00637875, No Iterations 6
Pressure gradient source: uncorrected Ubar = 1.00084, pressure gradient = 0.0909163
GAMG:  Solving for p, Initial residual = 0.103556, Final residual = 0.00984307, No Iterations 8
time step continuity errors : sum local = 6.07274e-05, global = -3.15798e-19, cumulative = 2.31249e-17
Pressure gradient source: uncorrected Ubar = 1.00008, pressure gradient = 0.354207
smoothSolver:  Solving for omega, Initial residual = 7.31346e-06, Final residual = 7.31346e-06, No Iterations 0
smoothSolver:  Solving for k, Initial residual = 0.00709739, Final residual = 0.000508262, No Iterations 6
ExecutionTime = 0.072005 s  ClockTime = 0 s

Time = 23s

smoothSolver:  Solving for Ux, Initial residual = 0.0125967, Final residual = 0.000926244, No Iterations 5
smoothSolver:  Solving for Uy, Initial residual = 0.0902435, Final residual = 0.0062557, No Iterations 6
Pressure gradient source: uncorrected Ubar = 1.00102, pressure gradient = -0.00751578
GAMG:  Solving for p, Initial residual = 0.113271, Final residual = 0.011077, No Iterations 8
time step continuity errors : sum local = 6.17717e-05, global = 2.48771e-18, cumulative = 2.56126e-17
Pressure gradient source: uncorrected Ubar = 1.0001, pressure gradient = 0.318675
smoothSolver:  Solving for omega, Initial residual = 7.47181e-06, Final residual = 7.47181e-06, No Iterations 0
smoothSolver:  Solving for k, Initial residual = 0.00730105, Final residual = 0.000521341, No Iterations 6
ExecutionTime = 0.074677 s  ClockTime = 0 s

Time = 24s

smoothSolver:  Solving for Ux, Initial residual = 0.0118861, Final residual = 0.000893592, No Iterations 5
smoothSolver:  Solving for Uy, Initial residual = 0.0962572, Final residual = 0.00638794, No Iterations 6
Pressure gradient source: uncorrected Ubar = 1.00095, pressure gradient = -0.0251183
GAMG:  Solving for p, Initial residual = 0.130344, Final residual = 0.0118633, No Iterations 8
time step continuity errors : sum local = 5.64015e-05, global = 5.87828e-19, cumulative = 2.62004e-17
Pressure gradient source: uncorrected Ubar = 1.00009, pressure gradient = 0.285049
smoothSolver:  Solving for omega, Initial residual = 7.6167e-06, Final residual = 7.6167e-06, No Iterations 0
smoothSolver:  Solving for k, Initial residual = 0.00749507, Final residual = 0.000546192, No Iterations 6
ExecutionTime = 0.077376 s  ClockTime = 0 s

Time = 25s

smoothSolver:  Solving for Ux, Initial residual = 0.0112835, Final residual = 0.000864331, No Iterations 5
smoothSolver:  Solving for Uy, Initial residual = 0.0995324, Final residual = 0.00676768, No Iterations 6
Pressure gradient source: uncorrected Ubar = 1.00092, pressure gradient = -0.0522797
GAMG:  Solving for p, Initial residual = 0.139675, Final residual = 0.0136965, No Iterations 6
time step continuity errors : sum local = 5.41825e-05, global = 1.46357e-18, cumulative = 2.7664e-17
Pressure gradient source: uncorrected Ubar = 1.00009, pressure gradient = 0.251911
smoothSolver:  Solving for omega, Initial residual = 7.74162e-06, Final residual = 7.74162e-06, No Iterations 0
smoothSolver:  Solving for k, Initial residual = 0.00769966, Final residual = 0.000567346, No Iterations 6
ExecutionTime = 0.079943 s  ClockTime = 0 s

Time = 26s

smoothSolver:  Solving for Ux, Initial residual = 0.0107594, Final residual = 0.000841008, No Iterations 5
smoothSolver:  Solving for Uy, Initial residual = 0.105243, Final residual = 0.010441, No Iterations 5
Pressure gradient source: uncorrected Ubar = 1.00085, pressure gradient = -0.065278
GAMG:  Solving for p, Initial residual = 0.139676, Final residual = 0.0130078, No Iterations 5
time step continuity errors : sum local = 4.48443e-05, global = -6.51734e-18, cumulative = 2.11466e-17
Pressure gradient source: uncorrected Ubar = 1.00008, pressure gradient = 0.22106
smoothSolver:  Solving for omega, Initial residual = 7.84708e-06, Final residual = 7.84708e-06, No Iterations 0
smoothSolver:  Solving for k, Initial residual = 0.00788904, Final residual = 0.000586205, No Iterations 6
ExecutionTime = 0.082469 s  ClockTime = 0 s

Time = 27s

smoothSolver:  Solving for Ux, Initial residual = 0.0101986, Final residual = 0.000813651, No Iterations 5
smoothSolver:  Solving for Uy, Initial residual = 0.108027, Final residual = 0.0071721, No Iterations 6
Pressure gradient source: uncorrected Ubar = 1.00085, pressure gradient = -0.102062
GAMG:  Solving for p, Initial residual = 0.136274, Final residual = 0.0115138, No Iterations 3
time step continuity errors : sum local = 3.58474e-05, global = 4.41352e-18, cumulative = 2.55602e-17
Pressure gradient source: uncorrected Ubar = 1.00008, pressure gradient = 0.189051
smoothSolver:  Solving for omega, Initial residual = 7.94467e-06, Final residual = 7.94467e-06, No Iterations 0
smoothSolver:  Solving for k, Initial residual = 0.00809844, Final residual = 0.000612845, No Iterations 6
ExecutionTime = 0.084921 s  ClockTime = 0 s

Time = 28s

smoothSolver:  Solving for Ux, Initial residual = 0.00981062, Final residual = 0.000797437, No Iterations 5
smoothSolver:  Solving for Uy, Initial residual = 0.12083, Final residual = 0.00799047, No Iterations 6
Pressure gradient source: uncorrected Ubar = 1.00076, pressure gradient = -0.102989
GAMG:  Solving for p, Initial residual = 0.13932, Final residual = 0.0113707, No Iterations 3
time step continuity errors : sum local = 3.27815e-05, global = 7.16288e-18, cumulative = 3.2723e-17
Pressure gradient source: uncorrected Ubar = 1.00007, pressure gradient = 0.160787
smoothSolver:  Solving for omega, Initial residual = 8.04456e-06, Final residual = 8.04456e-06, No Iterations 0
smoothSolver:  Solving for k, Initial residual = 0.00828696, Final residual = 0.000629985, No Iterations 6
ExecutionTime = 0.087376 s  ClockTime = 0 s

Time = 29s

smoothSolver:  Solving for Ux, Initial residual = 0.00930927, Final residual = 0.000773752, No Iterations 5
smoothSolver:  Solving for Uy, Initial residual = 0.123216, Final residual = 0.0118577, No Iterations 5
Pressure gradient source: uncorrected Ubar = 1.00079, pressure gradient = -0.145729
GAMG:  Solving for p, Initial residual = 0.129916, Final residual = 0.00935971, No Iterations 3
time step continuity errors : sum local = 2.6096e-05, global = 2.0891e-18, cumulative = 3.48121e-17
Pressure gradient source: uncorrected Ubar = 1.00008, pressure gradient = 0.130267
smoothSolver:  Solving for omega, Initial residual = 8.13527e-06, Final residual = 8.13527e-06, No Iterations 0
smoothSolver:  Solving for k, Initial residual = 0.00845353, Final residual = 0.000641822, No Iterations 6
ExecutionTime = 0.089873 s  ClockTime = 0 s

Time = 30s

smoothSolver:  Solving for Ux, Initial residual = 0.00897795, Final residual = 0.00075807, No Iterations 5
smoothSolver:  Solving for Uy, Initial residual = 0.114767, Final residual = 0.00764648, No Iterations 6
Pressure gradient source: uncorrected Ubar = 1.00071, pressure gradient = -0.148166
GAMG:  Solving for p, Initial residual = 0.119455, Final residual = 0.00785095, No Iterations 3
time step continuity errors : sum local = 2.12936e-05, global = -1.94544e-18, cumulative = 3.28667e-17
Pressure gradient source: uncorrected Ubar = 1.00007, pressure gradient = 0.103053
smoothSolver:  Solving for omega, Initial residual = 8.19539e-06, Final residual = 8.19539e-06, No Iterations 0
smoothSolver:  Solving for k, Initial residual = 0.00862749, Final residual = 0.000664321, No Iterations 6
ExecutionTime = 0.092315 s  ClockTime = 0 s

Time = 31s

smoothSolver:  Solving for Ux, Initial residual = 0.00866015, Final residual = 0.000748942, No Iterations 5
smoothSolver:  Solving for Uy, Initial residual = 0.106327, Final residual = 0.0105737, No Iterations 5
Pressure gradient source: uncorrected Ubar = 1.00066, pressure gradient = -0.159155
GAMG:  Solving for p, Initial residual = 0.112575, Final residual = 0.00894168, No Iterations 3
time step continuity errors : sum local = 2.30177e-05, global = -2.84107e-18, cumulative = 3.00256e-17
Pressure gradient source: uncorrected Ubar = 1.00006, pressure gradient = 0.0776853
smoothSolver:  Solving for omega, Initial residual = 8.24318e-06, Final residual = 8.24318e-06, No Iterations 0
smoothSolver:  Solving for k, Initial residual = 0.0087888, Final residual = 0.000680757, No Iterations 6
ExecutionTime = 0.094739 s  ClockTime = 0 s

Time = 32s

smoothSolver:  Solving for Ux, Initial residual = 0.00823071, Final residual = 0.000727499, No Iterations 5
smoothSolver:  Solving for Uy, Initial residual = 0.0999055, Final residual = 0.00952232, No Iterations 5
Pressure gradient source: uncorrected Ubar = 1.00071, pressure gradient = -0.203607
GAMG:  Solving for p, Initial residual = 0.11799, Final residual = 0.00915954, No Iterations 3
time step continuity errors : sum local = 2.28026e-05, global = -3.42176e-18, cumulative = 2.66039e-17
Pressure gradient source: uncorrected Ubar = 1.00007, pressure gradient = 0.0494494
smoothSolver:  Solving for omega, Initial residual = 8.29812e-06, Final residual = 8.29812e-06, No Iterations 0
smoothSolver:  Solving for k, Initial residual = 0.00897298, Final residual = 0.000691544, No Iterations 6
ExecutionTime = 0.097189 s  ClockTime = 0 s

Time = 33s

smoothSolver:  Solving for Ux, Initial residual = 0.00800411, Final residual = 0.000721517, No Iterations 5
smoothSolver:  Solving for Uy, Initial residual = 0.0875201, Final residual = 0.00582776, No Iterations 6
Pressure gradient source: uncorrected Ubar = 1.00061, pressure gradient = -0.19321
GAMG:  Solving for p, Initial residual = 0.101495, Final residual = 0.00732886, No Iterations 3
time step continuity errors : sum local = 1.81793e-05, global = 4.08519e-18, cumulative = 3.06891e-17
Pressure gradient source: uncorrected Ubar = 1.00006, pressure gradient = 0.0259281
smoothSolver:  Solving for omega, Initial residual = 8.31752e-06, Final residual = 8.31752e-06, No Iterations 0
smoothSolver:  Solving for k, Initial residual = 0.00905761, Final residual = 0.000701865, No Iterations 6
ExecutionTime = 0.099702 s  ClockTime = 0 s

Time = 34s

smoothSolver:  Solving for Ux, Initial residual = 0.0077762, Final residual = 0.000717827, No Iterations 5
smoothSolver:  Solving for Uy, Initial residual = 0.0807454, Final residual = 0.00805486, No Iterations 5
Pressure gradient source: uncorrected Ubar = 1.00057, pressure gradient = -0.204179
GAMG:  Solving for p, Initial residual = 0.106705, Final residual = 0.00794708, No Iterations 3
time step continuity errors : sum local = 1.92484e-05, global = 5.42895e-20, cumulative = 3.07434e-17
Pressure gradient source: uncorrected Ubar = 1.00006, pressure gradient = 0.00380119
smoothSolver:  Solving for omega, Initial residual = 8.31909e-06, Final residual = 8.31909e-06, No Iterations 0
smoothSolver:  Solving for k, Initial residual = 0.00916774, Final residual = 0.00070722, No Iterations 6
ExecutionTime = 0.102214 s  ClockTime = 0 s

Time = 35s

smoothSolver:  Solving for Ux, Initial residual = 0.00746422, Final residual = 0.000705124, No Iterations 5
smoothSolver:  Solving for Uy, Initial residual = 0.0743636, Final residual = 0.00720193, No Iterations 5
Pressure gradient source: uncorrected Ubar = 1.0006, pressure gradient = -0.238941
GAMG:  Solving for p, Initial residual = 0.0957723, Final residual = 0.00764937, No Iterations 3
time step continuity errors : sum local = 1.83802e-05, global = -6.09612e-19, cumulative = 3.01337e-17
Pressure gradient source: uncorrected Ubar = 1.00006, pressure gradient = -0.0203109
smoothSolver:  Solving for omega, Initial residual = 8.35453e-06, Final residual = 8.35453e-06, No Iterations 0
smoothSolver:  Solving for k, Initial residual = 0.00933589, Final residual = 0.000714721, No Iterations 6
ExecutionTime = 0.104758 s  ClockTime = 0 s

Time = 36s

smoothSolver:  Solving for Ux, Initial residual = 0.00720047, Final residual = 0.00069556, No Iterations 5
smoothSolver:  Solving for Uy, Initial residual = 0.0716661, Final residual = 0.00689244, No Iterations 5
Pressure gradient source: uncorrected Ubar = 1.00057, pressure gradient = -0.249033
GAMG:  Solving for p, Initial residual = 0.0836288, Final residual = 0.00655378, No Iterations 3
time step continuity errors : sum local = 1.60609e-05, global = -7.14709e-19, cumulative = 2.9419e-17
Pressure gradient source: uncorrected Ubar = 1.00006, pressure gradient = -0.042958
smoothSolver:  Solving for omega, Initial residual = 8.3666e-06, Final residual = 8.3666e-06, No Iterations 0
smoothSolver:  Solving for k, Initial residual = 0.00935055, Final residual = 0.000724251, No Iterations 6
ExecutionTime = 0.107204 s  ClockTime = 0 s

Time = 37s

smoothSolver:  Solving for Ux, Initial residual = 0.00709051, Final residual = 0.000700123, No Iterations 5
smoothSolver:  Solving for Uy, Initial residual = 0.0663377, Final residual = 0.00648379, No Iterations 5
Pressure gradient source: uncorrected Ubar = 1.00048, pressure gradient = -0.235009
GAMG:  Solving for p, Initial residual = 0.0840815, Final residual = 0.00279226, No Iterations 4
time step continuity errors : sum local = 6.90568e-06, global = -2.84938e-18, cumulative = 2.65697e-17
Pressure gradient source: uncorrected Ubar = 1.00004, pressure gradient = -0.0610446
smoothSolver:  Solving for omega, Initial residual = 8.35713e-06, Final residual = 8.35713e-06, No Iterations 0
smoothSolver:  Solving for k, Initial residual = 0.00943118, Final residual = 0.00073112, No Iterations 6
ExecutionTime = 0.109716 s  ClockTime = 0 s

Time = 38s

smoothSolver:  Solving for Ux, Initial residual = 0.00691542, Final residual = 0.000462078, No Iterations 6
smoothSolver:  Solving for Uy, Initial residual = 0.0618845, Final residual = 0.00579782, No Iterations 5
Pressure gradient source: uncorrected Ubar = 1.00045, pressure gradient = -0.242376
GAMG:  Solving for p, Initial residual = 0.0766141, Final residual = 0.00370896, No Iterations 3
time step continuity errors : sum local = 9.34286e-06, global = 4.54278e-18, cumulative = 3.11124e-17
Pressure gradient source: uncorrected Ubar = 1.00004, pressure gradient = -0.0787076
smoothSolver:  Solving for omega, Initial residual = 8.37791e-06, Final residual = 8.37791e-06, No Iterations 0
smoothSolver:  Solving for k, Initial residual = 0.00957521, Final residual = 0.000733233, No Iterations 6
ExecutionTime = 0.112154 s  ClockTime = 0 s

Time = 39s

smoothSolver:  Solving for Ux, Initial residual = 0.00664833, Final residual = 0.00045464, No Iterations 6
smoothSolver:  Solving for Uy, Initial residual = 0.0607804, Final residual = 0.00543369, No Iterations 5
Pressure gradient source: uncorrected Ubar = 1.0005, pressure gradient = -0.27769
GAMG:  Solving for p, Initial residual = 0.0727378, Final residual = 0.00632659, No Iterations 3
time step continuity errors : sum local = 1.65038e-05, global = -5.0018e-19, cumulative = 3.06123e-17
Pressure gradient source: uncorrected Ubar = 1.00005, pressure gradient = -0.0988855
smoothSolver:  Solving for omega, Initial residual = 8.3896e-06, Final residual = 8.3896e-06, No Iterations 0
smoothSolver:  Solving for k, Initial residual = 0.00959254, Final residual = 0.000738004, No Iterations 6
ExecutionTime = 0.114649 s  ClockTime = 0 s

Time = 40s

smoothSolver:  Solving for Ux, Initial residual = 0.00650124, Final residual = 0.000453316, No Iterations 6
smoothSolver:  Solving for Uy, Initial residual = 0.0597992, Final residual = 0.00537555, No Iterations 5
Pressure gradient source: uncorrected Ubar = 1.00043, pressure gradient = -0.268626
GAMG:  Solving for p, Initial residual = 0.0687288, Final residual = 0.00624761, No Iterations 4
time step continuity errors : sum local = 1.67575e-05, global = -4.76465e-18, cumulative = 2.58476e-17
Pressure gradient source: uncorrected Ubar = 1.00004, pressure gradient = -0.115631
smoothSolver:  Solving for omega, Initial residual = 8.36765e-06, Final residual = 8.36765e-06, No Iterations 0
smoothSolver:  Solving for k, Initial residual = 0.00960227, Final residual = 0.000737797, No Iterations 6
ExecutionTime = 0.117176 s  ClockTime = 0 s

Time = 41s

smoothSolver:  Solving for Ux, Initial residual = 0.00643311, Final residual = 0.000457721, No Iterations 6
smoothSolver:  Solving for Uy, Initial residual = 0.0552158, Final residual = 0.00499258, No Iterations 5
Pressure gradient source: uncorrected Ubar = 1.00037, pressure gradient = -0.26171
GAMG:  Solving for p, Initial residual = 0.0697961, Final residual = 0.0067645, No Iterations 3
time step continuity errors : sum local = 1.80586e-05, global = -2.11505e-18, cumulative = 2.37325e-17
Pressure gradient source: uncorrected Ubar = 1.00004, pressure gradient = -0.12956
smoothSolver:  Solving for omega, Initial residual = 8.33169e-06, Final residual = 8.33169e-06, No Iterations 0
smoothSolver:  Solving for k, Initial residual = 0.00967999, Final residual = 0.000743771, No Iterations 6
ExecutionTime = 0.119616 s  ClockTime = 0 s

Time = 42s

smoothSolver:  Solving for Ux, Initial residual = 0.00628178, Final residual = 0.000456003, No Iterations 6
smoothSolver:  Solving for Uy, Initial residual = 0.0542701, Final residual = 0.00460113, No Iterations 5
Pressure gradient source: uncorrected Ubar = 1.00039, pressure gradient = -0.282851
GAMG:  Solving for p, Initial residual = 0.0662176, Final residual = 0.00491953, No Iterations 3
time step continuity errors : sum local = 1.3826e-05, global = -2.3912e-18, cumulative = 2.13413e-17
Pressure gradient source: uncorrected Ubar = 1.00004, pressure gradient = -0.144625
smoothSolver:  Solving for omega, Initial residual = 8.33142e-06, Final residual = 8.33142e-06, No Iterations 0
smoothSolver:  Solving for k, Initial residual = 0.00978541, Final residual = 0.000745057, No Iterations 6
ExecutionTime = 0.122125 s  ClockTime = 0 s

Time = 43s

smoothSolver:  Solving for Ux, Initial residual = 0.00611056, Final residual = 0.000450747, No Iterations 6
smoothSolver:  Solving for Uy, Initial residual = 0.0534207, Final residual = 0.00422825, No Iterations 5
Pressure gradient source: uncorrected Ubar = 1.0004, pressure gradient = -0.299326
GAMG:  Solving for p, Initial residual = 0.06359, Final residual = 0.00598278, No Iterations 4
time step continuity errors : sum local = 1.64098e-05, global = 4.75179e-19, cumulative = 2.18165e-17
Pressure gradient source: uncorrected Ubar = 1.00004, pressure gradient = -0.160114
smoothSolver:  Solving for omega, Initial residual = 8.34418e-06, Final residual = 8.34418e-06, No Iterations 0
smoothSolver:  Solving for k, Initial residual = 0.00968477, Final residual = 0.0007427, No Iterations 6
ExecutionTime = 0.12462 s  ClockTime = 0 s

Time = 44s

smoothSolver:  Solving for Ux, Initial residual = 0.00591377, Final residual = 0.000445347, No Iterations 6
smoothSolver:  Solving for Uy, Initial residual = 0.0533144, Final residual = 0.00410629, No Iterations 5
Pressure gradient source: uncorrected Ubar = 1.00037, pressure gradient = -0.302699
GAMG:  Solving for p, Initial residual = 0.062127, Final residual = 0.00508807, No Iterations 5
time step continuity errors : sum local = 1.3902e-05, global = -6.44423e-18, cumulative = 1.53723e-17
Pressure gradient source: uncorrected Ubar = 1.00004, pressure gradient = -0.174337
smoothSolver:  Solving for omega, Initial residual = 8.33205e-06, Final residual = 8.33205e-06, No Iterations 0
smoothSolver:  Solving for k, Initial residual = 0.00968885, Final residual = 0.000740995, No Iterations 6
ExecutionTime = 0.127173 s  ClockTime = 0 s

Time = 45s

smoothSolver:  Solving for Ux, Initial residual = 0.00589402, Final residual = 0.00044943, No Iterations 6
smoothSolver:  Solving for Uy, Initial residual = 0.0465124, Final residual = 0.00374982, No Iterations 5
Pressure gradient source: uncorrected Ubar = 1.00029, pressure gradient = -0.284269
GAMG:  Solving for p, Initial residual = 0.0614324, Final residual = 0.00482968, No Iterations 4
time step continuity errors : sum local = 1.31773e-05, global = 3.42888e-18, cumulative = 1.88012e-17
Pressure gradient source: uncorrected Ubar = 1.00003, pressure gradient = -0.184553
smoothSolver:  Solving for omega, Initial residual = 8.31489e-06, Final residual = 8.31489e-06, No Iterations 0
smoothSolver:  Solving for k, Initial residual = 0.00966159, Final residual = 0.000738907, No Iterations 6
ExecutionTime = 0.129657 s  ClockTime = 0 s

Time = 46s

smoothSolver:  Solving for Ux, Initial residual = 0.00576663, Final residual = 0.000449194, No Iterations 6
smoothSolver:  Solving for Uy, Initial residual = 0.0451089, Final residual = 0.00337552, No Iterations 5
Pressure gradient source: uncorrected Ubar = 1.00029, pressure gradient = -0.293492
GAMG:  Solving for p, Initial residual = 0.0564958, Final residual = 0.00439616, No Iterations 3
time step continuity errors : sum local = 1.2043e-05, global = -2.6017e-18, cumulative = 1.61995e-17
Pressure gradient source: uncorrected Ubar = 1.00003, pressure gradient = -0.19484
smoothSolver:  Solving for omega, Initial residual = 8.29723e-06, Final residual = 8.29723e-06, No Iterations 0
smoothSolver:  Solving for k, Initial residual = 0.00967206, Final residual = 0.000731906, No Iterations 6
ExecutionTime = 0.132096 s  ClockTime = 0 s

Time = 47s

smoothSolver:  Solving for Ux, Initial residual = 0.00562802, Final residual = 0.000444486, No Iterations 6
smoothSolver:  Solving for Uy, Initial residual = 0.0458108, Final residual = 0.00342336, No Iterations 5
Pressure gradient source: uncorrected Ubar = 1.0003, pressure gradient = -0.306795
GAMG:  Solving for p, Initial residual = 0.0551399, Final residual = 0.00414623, No Iterations 3
time step continuity errors : sum local = 1.13211e-05, global = 8.35998e-18, cumulative = 2.45595e-17
Pressure gradient source: uncorrected Ubar = 1.00003, pressure gradient = -0.205738
smoothSolver:  Solving for omega, Initial residual = 8.27535e-06, Final residual = 8.27535e-06, No Iterations 0
smoothSolver:  Solving for k, Initial residual = 0.00956292, Final residual = 0.000722083, No Iterations 6
ExecutionTime = 0.134534 s  ClockTime = 0 s

Time = 48s

smoothSolver:  Solving for Ux, Initial residual = 0.00549868, Final residual = 0.000439671, No Iterations 6
smoothSolver:  Solving for Uy, Initial residual = 0.0475555, Final residual = 0.00358782, No Iterations 5
Pressure gradient source: uncorrected Ubar = 1.00027, pressure gradient = -0.30617
GAMG:  Solving for p, Initial residual = 0.0561274, Final residual = 0.0050183, No Iterations 5
time step continuity errors : sum local = 1.37841e-05, global = -4.41262e-18, cumulative = 2.01468e-17
Pressure gradient source: uncorrected Ubar = 1.00003, pressure gradient = -0.215345
smoothSolver:  Solving for omega, Initial residual = 8.25229e-06, Final residual = 8.25229e-06, No Iterations 0
smoothSolver:  Solving for k, Initial residual = 0.00931678, Final residual = 0.000709554, No Iterations 6
ExecutionTime = 0.137104 s  ClockTime = 0 s

Time = 49s

smoothSolver:  Solving for Ux, Initial residual = 0.00531806, Final residual = 0.000432047, No Iterations 6
smoothSolver:  Solving for Uy, Initial residual = 0.0498202, Final residual = 0.00387457, No Iterations 5
Pressure gradient source: uncorrected Ubar = 1.00026, pressure gradient = -0.310343
GAMG:  Solving for p, Initial residual = 0.0586659, Final residual = 0.00520821, No Iterations 6
time step continuity errors : sum local = 1.42345e-05, global = 3.45102e-18, cumulative = 2.35979e-17
Pressure gradient source: uncorrected Ubar = 1.00003, pressure gradient = -0.224503
smoothSolver:  Solving for omega, Initial residual = 8.2368e-06, Final residual = 8.2368e-06, No Iterations 0
smoothSolver:  Solving for k, Initial residual = 0.00913713, Final residual = 0.000695835, No Iterations 6
ExecutionTime = 0.13974 s  ClockTime = 0 s

Time = 50s

smoothSolver:  Solving for Ux, Initial residual = 0.00525608, Final residual = 0.000432218, No Iterations 6
smoothSolver:  Solving for Uy, Initial residual = 0.0479836, Final residual = 0.00389582, No Iterations 5
Pressure gradient source: uncorrected Ubar = 1.0002, pressure gradient = -0.294829
GAMG:  Solving for p, Initial residual = 0.0622993, Final residual = 0.00608441, No Iterations 4
time step continuity errors : sum local = 1.63664e-05, global = -5.96616e-19, cumulative = 2.30012e-17
Pressure gradient source: uncorrected Ubar = 1.00002, pressure gradient = -0.23062
smoothSolver:  Solving for omega, Initial residual = 8.22824e-06, Final residual = 8.22824e-06, No Iterations 0
smoothSolver:  Solving for k, Initial residual = 0.0089673, Final residual = 0.000683267, No Iterations 6
ExecutionTime = 0.142243 s  ClockTime = 0 s

Time = 51s

smoothSolver:  Solving for Ux, Initial residual = 0.00517356, Final residual = 0.000431526, No Iterations 6
smoothSolver:  Solving for Uy, Initial residual = 0.0478439, Final residual = 0.00379667, No Iterations 5
Pressure gradient source: uncorrected Ubar = 1.00018, pressure gradient = -0.294717
GAMG:  Solving for p, Initial residual = 0.0583026, Final residual = 0.00422901, No Iterations 3
time step continuity errors : sum local = 1.16652e-05, global = 1.13049e-17, cumulative = 3.43062e-17
Pressure gradient source: uncorrected Ubar = 1.00002, pressure gradient = -0.236097
smoothSolver:  Solving for omega, Initial residual = 8.22358e-06, Final residual = 8.22358e-06, No Iterations 0
smoothSolver:  Solving for k, Initial residual = 0.00881637, Final residual = 0.000671332, No Iterations 6
ExecutionTime = 0.144703 s  ClockTime = 0 s

Time = 52s

smoothSolver:  Solving for Ux, Initial residual = 0.00505079, Final residual = 0.000426452, No Iterations 6
smoothSolver:  Solving for Uy, Initial residual = 0.0487323, Final residual = 0.00374745, No Iterations 5
Pressure gradient source: uncorrected Ubar = 1.00018, pressure gradient = -0.298365
GAMG:  Solving for p, Initial residual = 0.0553142, Final residual = 0.00417264, No Iterations 3
time step continuity errors : sum local = 1.13791e-05, global = 2.6573e-18, cumulative = 3.69635e-17
Pressure gradient source: uncorrected Ubar = 1.00002, pressure gradient = -0.241515
smoothSolver:  Solving for omega, Initial residual = 8.19313e-06, Final residual = 8.19313e-06, No Iterations 0
smoothSolver:  Solving for k, Initial residual = 0.00863748, Final residual = 0.000656165, No Iterations 6
ExecutionTime = 0.147142 s  ClockTime = 0 s

Time = 53s

smoothSolver:  Solving for Ux, Initial residual = 0.00489955, Final residual = 0.000418138, No Iterations 6
smoothSolver:  Solving for Uy, Initial residual = 0.0491805, Final residual = 0.00374259, No Iterations 5
Pressure gradient source: uncorrected Ubar = 1.00018, pressure gradient = -0.301464
GAMG:  Solving for p, Initial residual = 0.0553998, Final residual = 0.00535053, No Iterations 3
time step continuity errors : sum local = 1.45678e-05, global = 1.95989e-18, cumulative = 3.89234e-17
Pressure gradient source: uncorrected Ubar = 1.00002, pressure gradient = -0.24681
smoothSolver:  Solving for omega, Initial residual = 8.06687e-06, Final residual = 8.06687e-06, No Iterations 0
smoothSolver:  Solving for k, Initial residual = 0.00838563, Final residual = 0.000640885, No Iterations 6
ExecutionTime = 0.149583 s  ClockTime = 0 s

Time = 54s

smoothSolver:  Solving for Ux, Initial residual = 0.00477626, Final residual = 0.00041112, No Iterations 6
smoothSolver:  Solving for Uy, Initial residual = 0.0496633, Final residual = 0.00376492, No Iterations 5
Pressure gradient source: uncorrected Ubar = 1.00014, pressure gradient = -0.294065
GAMG:  Solving for p, Initial residual = 0.0570171, Final residual = 0.005109, No Iterations 6
time step continuity errors : sum local = 1.40854e-05, global = -5.08708e-18, cumulative = 3.38363e-17
Pressure gradient source: uncorrected Ubar = 1.00001, pressure gradient = -0.250576
smoothSolver:  Solving for omega, Initial residual = 8.06208e-06, Final residual = 8.06208e-06, No Iterations 0
smoothSolver:  Solving for k, Initial residual = 0.00815215, Final residual = 0.000623475, No Iterations 6
ExecutionTime = 0.152192 s  ClockTime = 0 s

Time = 55s

smoothSolver:  Solving for Ux, Initial residual = 0.0046052, Final residual = 0.000401414, No Iterations 6
smoothSolver:  Solving for Uy, Initial residual = 0.0494559, Final residual = 0.00396266, No Iterations 5
Pressure gradient source: uncorrected Ubar = 1.00014, pressure gradient = -0.294393
GAMG:  Solving for p, Initial residual = 0.0608011, Final residual = 0.00604986, No Iterations 7
time step continuity errors : sum local = 1.62031e-05, global = 1.21563e-17, cumulative = 4.59926e-17
Pressure gradient source: uncorrected Ubar = 1.00001, pressure gradient = -0.254083
smoothSolver:  Solving for omega, Initial residual = 8.04265e-06, Final residual = 8.04265e-06, No Iterations 0
smoothSolver:  Solving for k, Initial residual = 0.00790085, Final residual = 0.00060776, No Iterations 6
ExecutionTime = 0.154889 s  ClockTime = 0 s

Time = 56s

smoothSolver:  Solving for Ux, Initial residual = 0.0045238, Final residual = 0.000397766, No Iterations 6
smoothSolver:  Solving for Uy, Initial residual = 0.0492413, Final residual = 0.003922, No Iterations 5
Pressure gradient source: uncorrected Ubar = 1.00008, pressure gradient = -0.280251
GAMG:  Solving for p, Initial residual = 0.0620222, Final residual = 0.00543181, No Iterations 5
time step continuity errors : sum local = 1.435e-05, global = -1.26907e-18, cumulative = 4.47235e-17
Pressure gradient source: uncorrected Ubar = 1, pressure gradient = -0.255365
smoothSolver:  Solving for omega, Initial residual = 7.89708e-06, Final residual = 7.89708e-06, No Iterations 0
smoothSolver:  Solving for k, Initial residual = 0.00769223, Final residual = 0.00059366, No Iterations 6
ExecutionTime = 0.157427 s  ClockTime = 0 s

Time = 57s

smoothSolver:  Solving for Ux, Initial residual = 0.00446265, Final residual = 0.000394905, No Iterations 6
smoothSolver:  Solving for Uy, Initial residual = 0.0488845, Final residual = 0.00366985, No Iterations 5
Pressure gradient source: uncorrected Ubar = 1.00006, pressure gradient = -0.275061
GAMG:  Solving for p, Initial residual = 0.057713, Final residual = 0.00450771, No Iterations 3
time step continuity errors : sum local = 1.15368e-05, global = 4.30992e-18, cumulative = 4.90335e-17
Pressure gradient source: uncorrected Ubar = 1, pressure gradient = -0.2559
smoothSolver:  Solving for omega, Initial residual = 7.80174e-06, Final residual = 7.80174e-06, No Iterations 0
smoothSolver:  Solving for k, Initial residual = 0.00747785, Final residual = 0.000580341, No Iterations 6
ExecutionTime = 0.159859 s  ClockTime = 0 s

Time = 58s

smoothSolver:  Solving for Ux, Initial residual = 0.00436511, Final residual = 0.000389225, No Iterations 6
smoothSolver:  Solving for Uy, Initial residual = 0.0499945, Final residual = 0.00357186, No Iterations 5
Pressure gradient source: uncorrected Ubar = 1.00006, pressure gradient = -0.274959
GAMG:  Solving for p, Initial residual = 0.0554067, Final residual = 0.00218839, No Iterations 4
time step continuity errors : sum local = 5.66111e-06, global = -4.20533e-18, cumulative = 4.48281e-17
Pressure gradient source: uncorrected Ubar = 1, pressure gradient = -0.256475
smoothSolver:  Solving for omega, Initial residual = 7.79865e-06, Final residual = 7.79865e-06, No Iterations 0
smoothSolver:  Solving for k, Initial residual = 0.00724056, Final residual = 0.000563418, No Iterations 6
ExecutionTime = 0.16235 s  ClockTime = 0 s

Time = 59s

smoothSolver:  Solving for Ux, Initial residual = 0.00424703, Final residual = 0.000380791, No Iterations 6
smoothSolver:  Solving for Uy, Initial residual = 0.0501586, Final residual = 0.00351477, No Iterations 5
Pressure gradient source: uncorrected Ubar = 1.00006, pressure gradient = -0.272798
GAMG:  Solving for p, Initial residual = 0.0521753, Final residual = 0.00360592, No Iterations 3
time step continuity errors : sum local = 9.2054e-06, global = -6.30981e-18, cumulative = 3.85183e-17
Pressure gradient source: uncorrected Ubar = 1, pressure gradient = -0.256793
smoothSolver:  Solving for omega, Initial residual = 7.71672e-06, Final residual = 7.71672e-06, No Iterations 0
smoothSolver:  Solving for k, Initial residual = 0.00700491, Final residual = 0.000548842, No Iterations 6
ExecutionTime = 0.164826 s  ClockTime = 0 s

Time = 60s

smoothSolver:  Solving for Ux, Initial residual = 0.00409907, Final residual = 0.000370028, No Iterations 6
smoothSolver:  Solving for Uy, Initial residual = 0.0497657, Final residual = 0.00343421, No Iterations 5
Pressure gradient source: uncorrected Ubar = 1.00005, pressure gradient = -0.272336
GAMG:  Solving for p, Initial residual = 0.0532738, Final residual = 0.00508301, No Iterations 3
time step continuity errors : sum local = 1.32151e-05, global = 2.39432e-18, cumulative = 4.09126e-17
Pressure gradient source: uncorrected Ubar = 1, pressure gradient = -0.257123
smoothSolver:  Solving for omega, Initial residual = 7.50697e-06, Final residual = 7.50697e-06, No Iterations 0
smoothSolver:  Solving for k, Initial residual = 0.00677658, Final residual = 0.000533344, No Iterations 6
ExecutionTime = 0.167261 s  ClockTime = 0 s

Time = 61s

smoothSolver:  Solving for Ux, Initial residual = 0.00396076, Final residual = 0.000359582, No Iterations 6
smoothSolver:  Solving for Uy, Initial residual = 0.0497165, Final residual = 0.00343199, No Iterations 5
Pressure gradient source: uncorrected Ubar = 1.00004, pressure gradient = -0.267394
GAMG:  Solving for p, Initial residual = 0.0548678, Final residual = 0.00524699, No Iterations 5
time step continuity errors : sum local = 1.3332e-05, global = 8.8638e-18, cumulative = 4.97764e-17
Pressure gradient source: uncorrected Ubar = 0.999999, pressure gradient = -0.256833
smoothSolver:  Solving for omega, Initial residual = 7.50524e-06, Final residual = 7.50524e-06, No Iterations 0
smoothSolver:  Solving for k, Initial residual = 0.00653381, Final residual = 0.000515294, No Iterations 6
ExecutionTime = 0.16979 s  ClockTime = 0 s

Time = 62s

smoothSolver:  Solving for Ux, Initial residual = 0.00381338, Final residual = 0.000348669, No Iterations 6
smoothSolver:  Solving for Uy, Initial residual = 0.0484714, Final residual = 0.00342709, No Iterations 5
Pressure gradient source: uncorrected Ubar = 1.00003, pressure gradient = -0.264285
GAMG:  Solving for p, Initial residual = 0.0565208, Final residual = 0.00553878, No Iterations 9
time step continuity errors : sum local = 1.38537e-05, global = 1.66566e-18, cumulative = 5.14421e-17
Pressure gradient source: uncorrected Ubar = 0.999998, pressure gradient = -0.256269
smoothSolver:  Solving for omega, Initial residual = 7.48649e-06, Final residual = 7.48649e-06, No Iterations 0
smoothSolver:  Solving for k, Initial residual = 0.00629152, Final residual = 0.000498404, No Iterations 6
ExecutionTime = 0.172563 s  ClockTime = 0 s

Time = 63s

smoothSolver:  Solving for Ux, Initial residual = 0.00370568, Final residual = 0.000341017, No Iterations 6
smoothSolver:  Solving for Uy, Initial residual = 0.0491862, Final residual = 0.00372421, No Iterations 5
Pressure gradient source: uncorrected Ubar = 1, pressure gradient = -0.256445
GAMG:  Solving for p, Initial residual = 0.059057, Final residual = 0.00520017, No Iterations 6
time step continuity errors : sum local = 1.19445e-05, global = -5.23903e-18, cumulative = 4.62031e-17
Pressure gradient source: uncorrected Ubar = 0.999995, pressure gradient = -0.254796
smoothSolver:  Solving for omega, Initial residual = 7.4429e-06, Final residual = 7.4429e-06, No Iterations 0
smoothSolver:  Solving for k, Initial residual = 0.00607019, Final residual = 0.000482368, No Iterations 6
ExecutionTime = 0.175164 s  ClockTime = 0 s

Time = 64s

smoothSolver:  Solving for Ux, Initial residual = 0.00366621, Final residual = 0.000337889, No Iterations 6
smoothSolver:  Solving for Uy, Initial residual = 0.0494551, Final residual = 0.00484628, No Iterations 4
Pressure gradient source: uncorrected Ubar = 0.999972, pressure gradient = -0.247201
GAMG:  Solving for p, Initial residual = 0.0538624, Final residual = 0.00483845, No Iterations 4
time step continuity errors : sum local = 1.10167e-05, global = -5.69053e-18, cumulative = 4.05125e-17
Pressure gradient source: uncorrected Ubar = 0.999991, pressure gradient = -0.252317
smoothSolver:  Solving for omega, Initial residual = 7.43514e-06, Final residual = 7.43514e-06, No Iterations 0
smoothSolver:  Solving for k, Initial residual = 0.00589031, Final residual = 0.000468382, No Iterations 6
ExecutionTime = 0.177651 s  ClockTime = 0 s

Time = 65s

smoothSolver:  Solving for Ux, Initial residual = 0.00361145, Final residual = 0.000333496, No Iterations 6
smoothSolver:  Solving for Uy, Initial residual = 0.0510906, Final residual = 0.00498545, No Iterations 4
Pressure gradient source: uncorrected Ubar = 0.999976, pressure gradient = -0.245912
GAMG:  Solving for p, Initial residual = 0.0521556, Final residual = 0.0045831, No Iterations 3
time step continuity errors : sum local = 1.13819e-05, global = 7.69212e-18, cumulative = 4.82047e-17
Pressure gradient source: uncorrected Ubar = 0.999992, pressure gradient = -0.25007
smoothSolver:  Solving for omega, Initial residual = 7.42791e-06, Final residual = 7.42791e-06, No Iterations 0
smoothSolver:  Solving for k, Initial residual = 0.00569768, Final residual = 0.000454476, No Iterations 6
ExecutionTime = 0.180098 s  ClockTime = 0 s

Time = 66s

smoothSolver:  Solving for Ux, Initial residual = 0.00354136, Final residual = 0.000327755, No Iterations 6
smoothSolver:  Solving for Uy, Initial residual = 0.0522174, Final residual = 0.00503543, No Iterations 4
Pressure gradient source: uncorrected Ubar = 0.999978, pressure gradient = -0.244342
GAMG:  Solving for p, Initial residual = 0.0482845, Final residual = 0.00282047, No Iterations 4
time step continuity errors : sum local = 7.63585e-06, global = -1.43466e-18, cumulative = 4.677e-17
Pressure gradient source: uncorrected Ubar = 0.999992, pressure gradient = -0.247977
smoothSolver:  Solving for omega, Initial residual = 7.41684e-06, Final residual = 7.41684e-06, No Iterations 0
smoothSolver:  Solving for k, Initial residual = 0.00550365, Final residual = 0.000439464, No Iterations 6
ExecutionTime = 0.182581 s  ClockTime = 0 s

Time = 67s

smoothSolver:  Solving for Ux, Initial residual = 0.00345749, Final residual = 0.00032071, No Iterations 6
smoothSolver:  Solving for Uy, Initial residual = 0.0520959, Final residual = 0.00495742, No Iterations 4
Pressure gradient source: uncorrected Ubar = 0.999981, pressure gradient = -0.243101
GAMG:  Solving for p, Initial residual = 0.0439428, Final residual = 0.00177915, No Iterations 4
time step continuity errors : sum local = 4.75109e-06, global = -3.86618e-18, cumulative = 4.29038e-17
Pressure gradient source: uncorrected Ubar = 0.999993, pressure gradient = -0.246061
smoothSolver:  Solving for omega, Initial residual = 7.39988e-06, Final residual = 7.39988e-06, No Iterations 0
smoothSolver:  Solving for k, Initial residual = 0.00531072, Final residual = 0.000426192, No Iterations 6
ExecutionTime = 0.185092 s  ClockTime = 0 s

Time = 68s

smoothSolver:  Solving for Ux, Initial residual = 0.00336189, Final residual = 0.000312511, No Iterations 6
smoothSolver:  Solving for Uy, Initial residual = 0.0510002, Final residual = 0.00482525, No Iterations 4
Pressure gradient source: uncorrected Ubar = 0.999983, pressure gradient = -0.241792
GAMG:  Solving for p, Initial residual = 0.0426203, Final residual = 0.00399393, No Iterations 3
time step continuity errors : sum local = 8.98191e-06, global = -2.36342e-19, cumulative = 4.26675e-17
Pressure gradient source: uncorrected Ubar = 0.999993, pressure gradient = -0.244285
smoothSolver:  Solving for omega, Initial residual = 7.37813e-06, Final residual = 7.37813e-06, No Iterations 0
smoothSolver:  Solving for k, Initial residual = 0.00513001, Final residual = 0.00041156, No Iterations 6
ExecutionTime = 0.18751 s  ClockTime = 0 s

Time = 69s

smoothSolver:  Solving for Ux, Initial residual = 0.00325372, Final residual = 0.000303264, No Iterations 6
smoothSolver:  Solving for Uy, Initial residual = 0.0507258, Final residual = 0.00480713, No Iterations 4
Pressure gradient source: uncorrected Ubar = 0.999984, pressure gradient = -0.240147
GAMG:  Solving for p, Initial residual = 0.043671, Final residual = 0.00411364, No Iterations 5
time step continuity errors : sum local = 9.72037e-06, global = 3.4055e-18, cumulative = 4.6073e-17
Pressure gradient source: uncorrected Ubar = 0.999993, pressure gradient = -0.242583
smoothSolver:  Solving for omega, Initial residual = 7.3531e-06, Final residual = 7.3531e-06, No Iterations 0
smoothSolver:  Solving for k, Initial residual = 0.00494282, Final residual = 0.000397895, No Iterations 6
ExecutionTime = 0.190118 s  ClockTime = 0 s

Time = 70s

smoothSolver:  Solving for Ux, Initial residual = 0.00312909, Final residual = 0.000293243, No Iterations 6
smoothSolver:  Solving for Uy, Initial residual = 0.0498279, Final residual = 0.00461143, No Iterations 4
Pressure gradient source: uncorrected Ubar = 0.999989, pressure gradient = -0.239684
GAMG:  Solving for p, Initial residual = 0.0441145, Final residual = 0.00438858, No Iterations 8
time step continuity errors : sum local = 1.04776e-05, global = -7.75226e-18, cumulative = 3.83207e-17
Pressure gradient source: uncorrected Ubar = 0.999994, pressure gradient = -0.24111
smoothSolver:  Solving for omega, Initial residual = 7.32881e-06, Final residual = 7.32881e-06, No Iterations 0
smoothSolver:  Solving for k, Initial residual = 0.00475359, Final residual = 0.000382956, No Iterations 6
ExecutionTime = 0.192801 s  ClockTime = 0 s

Time = 71s

smoothSolver:  Solving for Ux, Initial residual = 0.00299423, Final residual = 0.000282636, No Iterations 6
smoothSolver:  Solving for Uy, Initial residual = 0.0482456, Final residual = 0.00457092, No Iterations 4
Pressure gradient source: uncorrected Ubar = 0.999992, pressure gradient = -0.239151
GAMG:  Solving for p, Initial residual = 0.045753, Final residual = 0.00430453, No Iterations 8
time step continuity errors : sum local = 9.60381e-06, global = 5.03011e-18, cumulative = 4.33508e-17
Pressure gradient source: uncorrected Ubar = 0.999995, pressure gradient = -0.239825
smoothSolver:  Solving for omega, Initial residual = 7.30706e-06, Final residual = 7.30706e-06, No Iterations 0
smoothSolver:  Solving for k, Initial residual = 0.00456111, Final residual = 0.000369182, No Iterations 6
ExecutionTime = 0.195466 s  ClockTime = 0 s

Time = 72s

smoothSolver:  Solving for Ux, Initial residual = 0.00288932, Final residual = 0.000274083, No Iterations 6
smoothSolver:  Solving for Uy, Initial residual = 0.0451466, Final residual = 0.00309099, No Iterations 5
Pressure gradient source: uncorrected Ubar = 0.999982, pressure gradient = -0.235247
GAMG:  Solving for p, Initial residual = 0.04842, Final residual = 0.003586, No Iterations 6
time step continuity errors : sum local = 6.8783e-06, global = 5.81075e-18, cumulative = 4.91616e-17
Pressure gradient source: uncorrected Ubar = 0.999994, pressure gradient = -0.238222
smoothSolver:  Solving for omega, Initial residual = 7.28821e-06, Final residual = 7.28821e-06, No Iterations 0
smoothSolver:  Solving for k, Initial residual = 0.00438131, Final residual = 0.000355955, No Iterations 6
ExecutionTime = 0.19808 s  ClockTime = 0 s

Time = 73s

smoothSolver:  Solving for Ux, Initial residual = 0.00285614, Final residual = 0.000270435, No Iterations 6
smoothSolver:  Solving for Uy, Initial residual = 0.0445596, Final residual = 0.00384965, No Iterations 4
Pressure gradient source: uncorrected Ubar = 0.999957, pressure gradient = -0.227568
GAMG:  Solving for p, Initial residual = 0.0439663, Final residual = 0.00368396, No Iterations 7
time step continuity errors : sum local = 7.71885e-06, global = 1.4966e-18, cumulative = 5.06582e-17
Pressure gradient source: uncorrected Ubar = 0.99999, pressure gradient = -0.235801
smoothSolver:  Solving for omega, Initial residual = 7.27737e-06, Final residual = 7.27737e-06, No Iterations 0
smoothSolver:  Solving for k, Initial residual = 0.00424072, Final residual = 0.000345746, No Iterations 6
ExecutionTime = 0.200688 s  ClockTime = 0 s

Time = 74s

smoothSolver:  Solving for Ux, Initial residual = 0.00282388, Final residual = 0.000267219, No Iterations 6
smoothSolver:  Solving for Uy, Initial residual = 0.0469436, Final residual = 0.00320797, No Iterations 5
Pressure gradient source: uncorrected Ubar = 0.99996, pressure gradient = -0.225976
GAMG:  Solving for p, Initial residual = 0.0434516, Final residual = 0.00363977, No Iterations 10
time step continuity errors : sum local = 8.44289e-06, global = 7.22669e-18, cumulative = 5.78849e-17
Pressure gradient source: uncorrected Ubar = 0.999991, pressure gradient = -0.233524
smoothSolver:  Solving for omega, Initial residual = 7.26174e-06, Final residual = 7.26174e-06, No Iterations 0
smoothSolver:  Solving for k, Initial residual = 0.00410964, Final residual = 0.000333918, No Iterations 6
ExecutionTime = 0.203556 s  ClockTime = 0 s

Time = 75s

smoothSolver:  Solving for Ux, Initial residual = 0.0027892, Final residual = 0.00026393, No Iterations 6
smoothSolver:  Solving for Uy, Initial residual = 0.0479371, Final residual = 0.00351948, No Iterations 5
Pressure gradient source: uncorrected Ubar = 0.999961, pressure gradient = -0.22407
GAMG:  Solving for p, Initial residual = 0.0386758, Final residual = 0.00371552, No Iterations 6
time step continuity errors : sum local = 8.32924e-06, global = -7.87603e-18, cumulative = 5.00088e-17
Pressure gradient source: uncorrected Ubar = 0.999991, pressure gradient = -0.231326
smoothSolver:  Solving for omega, Initial residual = 7.23767e-06, Final residual = 7.23767e-06, No Iterations 0
smoothSolver:  Solving for k, Initial residual = 0.00397947, Final residual = 0.000323045, No Iterations 6
ExecutionTime = 0.206248 s  ClockTime = 0 s

Time = 76s

smoothSolver:  Solving for Ux, Initial residual = 0.00275106, Final residual = 0.000260387, No Iterations 6
smoothSolver:  Solving for Uy, Initial residual = 0.0476799, Final residual = 0.003618, No Iterations 5
Pressure gradient source: uncorrected Ubar = 0.999963, pressure gradient = -0.222493
GAMG:  Solving for p, Initial residual = 0.0342546, Final residual = 0.00303881, No Iterations 5
time step continuity errors : sum local = 6.54948e-06, global = 7.02061e-18, cumulative = 5.70294e-17
Pressure gradient source: uncorrected Ubar = 0.999991, pressure gradient = -0.22924
smoothSolver:  Solving for omega, Initial residual = 7.21552e-06, Final residual = 7.21552e-06, No Iterations 0
smoothSolver:  Solving for k, Initial residual = 0.00384989, Final residual = 0.000311836, No Iterations 6
ExecutionTime = 0.208816 s  ClockTime = 0 s

Time = 77s

smoothSolver:  Solving for Ux, Initial residual = 0.00270904, Final residual = 0.000256546, No Iterations 6
smoothSolver:  Solving for Uy, Initial residual = 0.0474807, Final residual = 0.0036232, No Iterations 5
Pressure gradient source: uncorrected Ubar = 0.999966, pressure gradient = -0.221121
GAMG:  Solving for p, Initial residual = 0.0331499, Final residual = 0.00299696, No Iterations 7
time step continuity errors : sum local = 6.72332e-06, global = -3.40216e-19, cumulative = 5.66892e-17
Pressure gradient source: uncorrected Ubar = 0.999992, pressure gradient = -0.227278
smoothSolver:  Solving for omega, Initial residual = 7.19679e-06, Final residual = 7.19679e-06, No Iterations 0
smoothSolver:  Solving for k, Initial residual = 0.00371913, Final residual = 0.000300897, No Iterations 6
ExecutionTime = 0.211468 s  ClockTime = 0 s

Time = 78s

smoothSolver:  Solving for Ux, Initial residual = 0.0026635, Final residual = 0.000252418, No Iterations 6
smoothSolver:  Solving for Uy, Initial residual = 0.0473467, Final residual = 0.00346384, No Iterations 5
Pressure gradient source: uncorrected Ubar = 0.999969, pressure gradient = -0.219929
GAMG:  Solving for p, Initial residual = 0.0323344, Final residual = 0.00298973, No Iterations 7
time step continuity errors : sum local = 6.78838e-06, global = -2.57012e-18, cumulative = 5.41191e-17
Pressure gradient source: uncorrected Ubar = 0.999992, pressure gradient = -0.225448
smoothSolver:  Solving for omega, Initial residual = 7.18422e-06, Final residual = 7.18422e-06, No Iterations 0
smoothSolver:  Solving for k, Initial residual = 0.00358979, Final residual = 0.000289843, No Iterations 6
ExecutionTime = 0.2141 s  ClockTime = 0 s

Time = 79s

smoothSolver:  Solving for Ux, Initial residual = 0.00261444, Final residual = 0.000248023, No Iterations 6
smoothSolver:  Solving for Uy, Initial residual = 0.0464454, Final residual = 0.00320551, No Iterations 5
Pressure gradient source: uncorrected Ubar = 0.999972, pressure gradient = -0.218872
GAMG:  Solving for p, Initial residual = 0.0317032, Final residual = 0.00295019, No Iterations 5
time step continuity errors : sum local = 6.4635e-06, global = 3.44986e-18, cumulative = 5.7569e-17
Pressure gradient source: uncorrected Ubar = 0.999993, pressure gradient = -0.223751
smoothSolver:  Solving for omega, Initial residual = 7.17437e-06, Final residual = 7.17437e-06, No Iterations 0
smoothSolver:  Solving for k, Initial residual = 0.00346376, Final residual = 0.000279184, No Iterations 6
ExecutionTime = 0.216697 s  ClockTime = 0 s

Time = 80s

smoothSolver:  Solving for Ux, Initial residual = 0.00256218, Final residual = 0.000243393, No Iterations 6
smoothSolver:  Solving for Uy, Initial residual = 0.0454457, Final residual = 0.00438287, No Iterations 4
Pressure gradient source: uncorrected Ubar = 0.999975, pressure gradient = -0.217953
GAMG:  Solving for p, Initial residual = 0.0313366, Final residual = 0.00246578, No Iterations 5
time step continuity errors : sum local = 5.19587e-06, global = 2.50118e-18, cumulative = 6.00702e-17
Pressure gradient source: uncorrected Ubar = 0.999993, pressure gradient = -0.222186
smoothSolver:  Solving for omega, Initial residual = 7.16461e-06, Final residual = 7.16461e-06, No Iterations 0
smoothSolver:  Solving for k, Initial residual = 0.00334031, Final residual = 0.000268765, No Iterations 6
ExecutionTime = 0.219211 s  ClockTime = 0 s

Time = 81s

smoothSolver:  Solving for Ux, Initial residual = 0.00250683, Final residual = 0.000238579, No Iterations 6
smoothSolver:  Solving for Uy, Initial residual = 0.0444166, Final residual = 0.00409877, No Iterations 4
Pressure gradient source: uncorrected Ubar = 0.999979, pressure gradient = -0.217154
GAMG:  Solving for p, Initial residual = 0.0320317, Final residual = 0.0025479, No Iterations 5
time step continuity errors : sum local = 4.92461e-06, global = 1.4135e-19, cumulative = 6.02115e-17
Pressure gradient source: uncorrected Ubar = 0.999994, pressure gradient = -0.220752
smoothSolver:  Solving for omega, Initial residual = 7.15452e-06, Final residual = 7.15452e-06, No Iterations 0
smoothSolver:  Solving for k, Initial residual = 0.00321537, Final residual = 0.000258393, No Iterations 6
ExecutionTime = 0.221797 s  ClockTime = 0 s

Time = 82s

smoothSolver:  Solving for Ux, Initial residual = 0.0024484, Final residual = 0.000233603, No Iterations 6
smoothSolver:  Solving for Uy, Initial residual = 0.0437927, Final residual = 0.00398073, No Iterations 4
Pressure gradient source: uncorrected Ubar = 0.999982, pressure gradient = -0.216477
GAMG:  Solving for p, Initial residual = 0.0328831, Final residual = 0.00286165, No Iterations 5
time step continuity errors : sum local = 5.08334e-06, global = -1.2846e-17, cumulative = 4.73655e-17
Pressure gradient source: uncorrected Ubar = 0.999994, pressure gradient = -0.219449
smoothSolver:  Solving for omega, Initial residual = 7.14445e-06, Final residual = 7.14445e-06, No Iterations 0
smoothSolver:  Solving for k, Initial residual = 0.0030894, Final residual = 0.000247971, No Iterations 6
ExecutionTime = 0.224354 s  ClockTime = 0 s

Time = 83s

smoothSolver:  Solving for Ux, Initial residual = 0.00238718, Final residual = 0.000228482, No Iterations 6
smoothSolver:  Solving for Uy, Initial residual = 0.0445068, Final residual = 0.00393991, No Iterations 4
Pressure gradient source: uncorrected Ubar = 0.999985, pressure gradient = -0.215867
GAMG:  Solving for p, Initial residual = 0.0325833, Final residual = 0.00304535, No Iterations 5
time step continuity errors : sum local = 5.23702e-06, global = 1.07348e-17, cumulative = 5.81003e-17
Pressure gradient source: uncorrected Ubar = 0.999995, pressure gradient = -0.218267
smoothSolver:  Solving for omega, Initial residual = 7.1332e-06, Final residual = 7.1332e-06, No Iterations 0
smoothSolver:  Solving for k, Initial residual = 0.00296263, Final residual = 0.000237704, No Iterations 6
ExecutionTime = 0.226871 s  ClockTime = 0 s

Time = 84s

smoothSolver:  Solving for Ux, Initial residual = 0.00232878, Final residual = 0.00022362, No Iterations 6
smoothSolver:  Solving for Uy, Initial residual = 0.0463777, Final residual = 0.00377359, No Iterations 4
Pressure gradient source: uncorrected Ubar = 0.999984, pressure gradient = -0.214441
GAMG:  Solving for p, Initial residual = 0.0319006, Final residual = 0.00294915, No Iterations 4
time step continuity errors : sum local = 5.01404e-06, global = -9.75941e-18, cumulative = 4.83409e-17
Pressure gradient source: uncorrected Ubar = 0.999995, pressure gradient = -0.217077
smoothSolver:  Solving for omega, Initial residual = 7.11858e-06, Final residual = 7.11858e-06, No Iterations 0
smoothSolver:  Solving for k, Initial residual = 0.00283935, Final residual = 0.000228212, No Iterations 6
ExecutionTime = 0.229347 s  ClockTime = 0 s

Time = 85s

smoothSolver:  Solving for Ux, Initial residual = 0.00227742, Final residual = 0.000219445, No Iterations 6
smoothSolver:  Solving for Uy, Initial residual = 0.0450891, Final residual = 0.00324868, No Iterations 4
Pressure gradient source: uncorrected Ubar = 0.999982, pressure gradient = -0.212867
GAMG:  Solving for p, Initial residual = 0.0326341, Final residual = 0.00264336, No Iterations 9
time step continuity errors : sum local = 4.52785e-06, global = 7.22628e-19, cumulative = 4.90635e-17
Pressure gradient source: uncorrected Ubar = 0.999995, pressure gradient = -0.215856
smoothSolver:  Solving for omega, Initial residual = 7.10807e-06, Final residual = 7.10807e-06, No Iterations 0
smoothSolver:  Solving for k, Initial residual = 0.00272016, Final residual = 0.000218392, No Iterations 6
ExecutionTime = 0.232062 s  ClockTime = 0 s

Time = 86s

smoothSolver:  Solving for Ux, Initial residual = 0.00225461, Final residual = 0.000216989, No Iterations 6
smoothSolver:  Solving for Uy, Initial residual = 0.0408052, Final residual = 0.00293504, No Iterations 5
Pressure gradient source: uncorrected Ubar = 0.999974, pressure gradient = -0.209729
GAMG:  Solving for p, Initial residual = 0.037921, Final residual = 0.00352527, No Iterations 9
time step continuity errors : sum local = 6.16542e-06, global = 7.69854e-19, cumulative = 4.98334e-17
Pressure gradient source: uncorrected Ubar = 0.999994, pressure gradient = -0.214385
smoothSolver:  Solving for omega, Initial residual = 7.09706e-06, Final residual = 7.09706e-06, No Iterations 0
smoothSolver:  Solving for k, Initial residual = 0.00261802, Final residual = 0.000210292, No Iterations 6
ExecutionTime = 0.234765 s  ClockTime = 1 s

Time = 87s

smoothSolver:  Solving for Ux, Initial residual = 0.00223304, Final residual = 0.000214856, No Iterations 6
smoothSolver:  Solving for Uy, Initial residual = 0.0394391, Final residual = 0.00347171, No Iterations 5
Pressure gradient source: uncorrected Ubar = 0.999976, pressure gradient = -0.208828
GAMG:  Solving for p, Initial residual = 0.0343434, Final residual = 0.00306027, No Iterations 7
time step continuity errors : sum local = 5.58857e-06, global = 4.51786e-19, cumulative = 5.02852e-17
Pressure gradient source: uncorrected Ubar = 0.999994, pressure gradient = -0.213009
smoothSolver:  Solving for omega, Initial residual = 7.08114e-06, Final residual = 7.08114e-06, No Iterations 0
smoothSolver:  Solving for k, Initial residual = 0.00252375, Final residual = 0.000202174, No Iterations 6
ExecutionTime = 0.237396 s  ClockTime = 1 s

Time = 88s

smoothSolver:  Solving for Ux, Initial residual = 0.00221171, Final residual = 0.000212823, No Iterations 6
smoothSolver:  Solving for Uy, Initial residual = 0.0377413, Final residual = 0.00365685, No Iterations 5
Pressure gradient source: uncorrected Ubar = 0.999977, pressure gradient = -0.207679
GAMG:  Solving for p, Initial residual = 0.0291225, Final residual = 0.00286135, No Iterations 7
time step continuity errors : sum local = 5.11737e-06, global = -4.90048e-18, cumulative = 4.53847e-17
Pressure gradient source: uncorrected Ubar = 0.999994, pressure gradient = -0.211679
smoothSolver:  Solving for omega, Initial residual = 7.06478e-06, Final residual = 7.06478e-06, No Iterations 0
smoothSolver:  Solving for k, Initial residual = 0.00243217, Final residual = 0.000194607, No Iterations 6
ExecutionTime = 0.240099 s  ClockTime = 1 s

Time = 89s

smoothSolver:  Solving for Ux, Initial residual = 0.00219086, Final residual = 0.00021086, No Iterations 6
smoothSolver:  Solving for Uy, Initial residual = 0.034894, Final residual = 0.00239898, No Iterations 6
Pressure gradient source: uncorrected Ubar = 0.999978, pressure gradient = -0.206588
GAMG:  Solving for p, Initial residual = 0.0260321, Final residual = 0.00231062, No Iterations 8
[...]
smoothSolver:  Solving for omega, Initial residual = 6.28643e-06, Final residual = 6.28643e-06, No Iterations 0
smoothSolver:  Solving for k, Initial residual = 9.92074e-06, Final residual = 9.92074e-06, No Iterations 0
ExecutionTime = 5.6173 s  ClockTime = 6 s

Time = 2099s

smoothSolver:  Solving for Ux, Initial residual = 1.52749e-05, Final residual = 9.95074e-06, No Iterations 1
smoothSolver:  Solving for Uy, Initial residual = 0.000439669, Final residual = 4.17564e-05, No Iterations 5
Pressure gradient source: uncorrected Ubar = 1, pressure gradient = 0.0317117
GAMG:  Solving for p, Initial residual = 0.000342691, Final residual = 3.42498e-05, No Iterations 15
time step continuity errors : sum local = 1.13319e-09, global = 2.25069e-18, cumulative = -3.45782e-17
Pressure gradient source: uncorrected Ubar = 1, pressure gradient = 0.0317156
smoothSolver:  Solving for omega, Initial residual = 6.28643e-06, Final residual = 6.28643e-06, No Iterations 0
smoothSolver:  Solving for k, Initial residual = 9.93155e-06, Final residual = 9.93155e-06, No Iterations 0
ExecutionTime = 5.62024 s  ClockTime = 6 s

Time = 2100s

smoothSolver:  Solving for Ux, Initial residual = 1.52291e-05, Final residual = 9.92551e-06, No Iterations 1
smoothSolver:  Solving for Uy, Initial residual = 0.000446984, Final residual = 4.35787e-05, No Iterations 5
Pressure gradient source: uncorrected Ubar = 1, pressure gradient = 0.031712
GAMG:  Solving for p, Initial residual = 0.000285489, Final residual = 2.596e-05, No Iterations 17
time step continuity errors : sum local = 8.70669e-10, global = -1.82526e-18, cumulative = -3.64034e-17
Pressure gradient source: uncorrected Ubar = 1, pressure gradient = 0.0317153
smoothSolver:  Solving for omega, Initial residual = 6.28643e-06, Final residual = 6.28643e-06, No Iterations 0
smoothSolver:  Solving for k, Initial residual = 9.94341e-06, Final residual = 9.94341e-06, No Iterations 0
ExecutionTime = 5.62322 s  ClockTime = 6 s

Time = 2101s

smoothSolver:  Solving for Ux, Initial residual = 1.51834e-05, Final residual = 9.89927e-06, No Iterations 1
smoothSolver:  Solving for Uy, Initial residual = 0.000423983, Final residual = 4.17184e-05, No Iterations 5
Pressure gradient source: uncorrected Ubar = 1, pressure gradient = 0.0317121
GAMG:  Solving for p, Initial residual = 0.000209616, Final residual = 2.03789e-05, No Iterations 16
time step continuity errors : sum local = 6.79413e-10, global = 5.66133e-18, cumulative = -3.07421e-17
Pressure gradient source: uncorrected Ubar = 1, pressure gradient = 0.0317151
smoothSolver:  Solving for omega, Initial residual = 6.28643e-06, Final residual = 6.28643e-06, No Iterations 0
smoothSolver:  Solving for k, Initial residual = 9.95516e-06, Final residual = 9.95516e-06, No Iterations 0
ExecutionTime = 5.6262 s  ClockTime = 6 s

Time = 2102s

smoothSolver:  Solving for Ux, Initial residual = 1.51377e-05, Final residual = 9.87238e-06, No Iterations 1
smoothSolver:  Solving for Uy, Initial residual = 0.000396747, Final residual = 3.93887e-05, No Iterations 5
Pressure gradient source: uncorrected Ubar = 1, pressure gradient = 0.0317123
GAMG:  Solving for p, Initial residual = 0.000151616, Final residual = 1.40801e-05, No Iterations 15
time step continuity errors : sum local = 4.7062e-10, global = 1.52456e-18, cumulative = -2.92175e-17
Pressure gradient source: uncorrected Ubar = 1, pressure gradient = 0.0317149
smoothSolver:  Solving for omega, Initial residual = 6.28643e-06, Final residual = 6.28643e-06, No Iterations 0
smoothSolver:  Solving for k, Initial residual = 9.96715e-06, Final residual = 9.96715e-06, No Iterations 0
ExecutionTime = 5.62911 s  ClockTime = 6 s

Time = 2103s

smoothSolver:  Solving for Ux, Initial residual = 1.50922e-05, Final residual = 9.84508e-06, No Iterations 1
smoothSolver:  Solving for Uy, Initial residual = 0.000370526, Final residual = 2.40101e-05, No Iterations 6
Pressure gradient source: uncorrected Ubar = 1, pressure gradient = 0.0317124
GAMG:  Solving for p, Initial residual = 0.000131896, Final residual = 1.23184e-05, No Iterations 12
time step continuity errors : sum local = 4.07453e-10, global = -3.56547e-18, cumulative = -3.2783e-17
Pressure gradient source: uncorrected Ubar = 1, pressure gradient = 0.0317149
smoothSolver:  Solving for omega, Initial residual = 6.28643e-06, Final residual = 6.28643e-06, No Iterations 0
smoothSolver:  Solving for k, Initial residual = 9.98048e-06, Final residual = 9.98048e-06, No Iterations 0
ExecutionTime = 5.63189 s  ClockTime = 6 s

Time = 2104s

smoothSolver:  Solving for Ux, Initial residual = 1.50468e-05, Final residual = 9.81749e-06, No Iterations 1
smoothSolver:  Solving for Uy, Initial residual = 0.000342486, Final residual = 2.27508e-05, No Iterations 6
Pressure gradient source: uncorrected Ubar = 1, pressure gradient = 0.0317125
GAMG:  Solving for p, Initial residual = 0.000120899, Final residual = 1.09403e-05, No Iterations 7
time step continuity errors : sum local = 3.60923e-10, global = -1.60862e-19, cumulative = -3.29439e-17
Pressure gradient source: uncorrected Ubar = 1, pressure gradient = 0.0317148
smoothSolver:  Solving for omega, Initial residual = 6.28643e-06, Final residual = 6.28643e-06, No Iterations 0
smoothSolver:  Solving for k, Initial residual = 9.99595e-06, Final residual = 9.99595e-06, No Iterations 0
ExecutionTime = 5.63446 s  ClockTime = 6 s

Time = 2105s

smoothSolver:  Solving for Ux, Initial residual = 1.50015e-05, Final residual = 9.7897e-06, No Iterations 1
smoothSolver:  Solving for Uy, Initial residual = 0.000321988, Final residual = 2.17827e-05, No Iterations 6
Pressure gradient source: uncorrected Ubar = 1, pressure gradient = 0.0317126
GAMG:  Solving for p, Initial residual = 0.000110535, Final residual = 9.45399e-06, No Iterations 5
time step continuity errors : sum local = 3.07949e-10, global = -6.0541e-18, cumulative = -3.8998e-17
Pressure gradient source: uncorrected Ubar = 1, pressure gradient = 0.0317148
smoothSolver:  Solving for omega, Initial residual = 6.28643e-06, Final residual = 6.28643e-06, No Iterations 0
smoothSolver:  Solving for k, Initial residual = 1.00114e-05, Final residual = 6.59393e-06, No Iterations 1
ExecutionTime = 5.6369 s  ClockTime = 6 s

Time = 2106s

smoothSolver:  Solving for Ux, Initial residual = 1.49543e-05, Final residual = 9.76054e-06, No Iterations 1
smoothSolver:  Solving for Uy, Initial residual = 0.000307336, Final residual = 2.08157e-05, No Iterations 6
Pressure gradient source: uncorrected Ubar = 1, pressure gradient = 0.0317126
GAMG:  Solving for p, Initial residual = 0.000104617, Final residual = 6.90779e-06, No Iterations 6
time step continuity errors : sum local = 2.21816e-10, global = 3.39687e-18, cumulative = -3.56011e-17
Pressure gradient source: uncorrected Ubar = 1, pressure gradient = 0.0317148
smoothSolver:  Solving for omega, Initial residual = 6.28643e-06, Final residual = 6.28643e-06, No Iterations 0
smoothSolver:  Solving for k, Initial residual = 9.93877e-06, Final residual = 9.93877e-06, No Iterations 0
ExecutionTime = 5.6394 s  ClockTime = 6 s

Time = 2107s

smoothSolver:  Solving for Ux, Initial residual = 1.49094e-05, Final residual = 9.73262e-06, No Iterations 1
smoothSolver:  Solving for Uy, Initial residual = 0.000284331, Final residual = 1.93347e-05, No Iterations 6
Pressure gradient source: uncorrected Ubar = 1, pressure gradient = 0.0317128
GAMG:  Solving for p, Initial residual = 0.000101471, Final residual = 9.30131e-06, No Iterations 7
time step continuity errors : sum local = 2.91364e-10, global = 1.1525e-18, cumulative = -3.44486e-17
Pressure gradient source: uncorrected Ubar = 1, pressure gradient = 0.0317148
smoothSolver:  Solving for omega, Initial residual = 6.28643e-06, Final residual = 6.28643e-06, No Iterations 0
smoothSolver:  Solving for k, Initial residual = 9.95392e-06, Final residual = 9.95392e-06, No Iterations 0
ExecutionTime = 5.64195 s  ClockTime = 6 s

Time = 2108s

smoothSolver:  Solving for Ux, Initial residual = 1.48646e-05, Final residual = 9.70461e-06, No Iterations 1
smoothSolver:  Solving for Uy, Initial residual = 0.000264503, Final residual = 1.78748e-05, No Iterations 6
Pressure gradient source: uncorrected Ubar = 1, pressure gradient = 0.0317129
GAMG:  Solving for p, Initial residual = 0.000100367, Final residual = 9.99936e-06, No Iterations 8
time step continuity errors : sum local = 3.2643e-10, global = 4.91009e-18, cumulative = -2.95385e-17
Pressure gradient source: uncorrected Ubar = 1, pressure gradient = 0.0317149
smoothSolver:  Solving for omega, Initial residual = 6.28643e-06, Final residual = 6.28643e-06, No Iterations 0
smoothSolver:  Solving for k, Initial residual = 9.96912e-06, Final residual = 9.96912e-06, No Iterations 0
ExecutionTime = 5.64455 s  ClockTime = 6 s

Time = 2109s

smoothSolver:  Solving for Ux, Initial residual = 1.482e-05, Final residual = 9.67655e-06, No Iterations 1
smoothSolver:  Solving for Uy, Initial residual = 0.000248916, Final residual = 1.66688e-05, No Iterations 6
Pressure gradient source: uncorrected Ubar = 1, pressure gradient = 0.0317131
GAMG:  Solving for p, Initial residual = 0.000101687, Final residual = 8.98835e-06, No Iterations 9
time step continuity errors : sum local = 2.97736e-10, global = -1.13519e-18, cumulative = -3.06737e-17
Pressure gradient source: uncorrected Ubar = 1, pressure gradient = 0.0317149
smoothSolver:  Solving for omega, Initial residual = 6.28643e-06, Final residual = 6.28643e-06, No Iterations 0
smoothSolver:  Solving for k, Initial residual = 9.98465e-06, Final residual = 9.98465e-06, No Iterations 0
ExecutionTime = 5.64719 s  ClockTime = 6 s

Time = 2110s

smoothSolver:  Solving for Ux, Initial residual = 1.47754e-05, Final residual = 9.64847e-06, No Iterations 1
smoothSolver:  Solving for Uy, Initial residual = 0.000234961, Final residual = 1.56275e-05, No Iterations 6
Pressure gradient source: uncorrected Ubar = 1, pressure gradient = 0.0317132
GAMG:  Solving for p, Initial residual = 9.69443e-05, Final residual = 9.31374e-06, No Iterations 9
time step continuity errors : sum local = 3.07645e-10, global = -1.64741e-18, cumulative = -3.23211e-17
Pressure gradient source: uncorrected Ubar = 1, pressure gradient = 0.031715
smoothSolver:  Solving for omega, Initial residual = 6.28643e-06, Final residual = 6.28643e-06, No Iterations 0
smoothSolver:  Solving for k, Initial residual = 1.00013e-05, Final residual = 6.58448e-06, No Iterations 1
ExecutionTime = 5.64983 s  ClockTime = 6 s

Time = 2111s

smoothSolver:  Solving for Ux, Initial residual = 1.47286e-05, Final residual = 9.61891e-06, No Iterations 1
smoothSolver:  Solving for Uy, Initial residual = 0.000223614, Final residual = 1.46465e-05, No Iterations 6
Pressure gradient source: uncorrected Ubar = 1, pressure gradient = 0.0317132
GAMG:  Solving for p, Initial residual = 9.78692e-05, Final residual = 8.97939e-06, No Iterations 10
time step continuity errors : sum local = 2.94588e-10, global = 2.06896e-18, cumulative = -3.02521e-17
Pressure gradient source: uncorrected Ubar = 1, pressure gradient = 0.031715
smoothSolver:  Solving for omega, Initial residual = 6.28643e-06, Final residual = 6.28643e-06, No Iterations 0
smoothSolver:  Solving for k, Initial residual = 9.9241e-06, Final residual = 9.9241e-06, No Iterations 0
ExecutionTime = 5.6525 s  ClockTime = 6 s

Time = 2112s

smoothSolver:  Solving for Ux, Initial residual = 1.46845e-05, Final residual = 9.59094e-06, No Iterations 1
smoothSolver:  Solving for Uy, Initial residual = 0.000205133, Final residual = 1.32912e-05, No Iterations 6
Pressure gradient source: uncorrected Ubar = 1, pressure gradient = 0.0317134
GAMG:  Solving for p, Initial residual = 9.22402e-05, Final residual = 9.11948e-06, No Iterations 10
time step continuity errors : sum local = 2.98523e-10, global = -4.05942e-18, cumulative = -3.43116e-17
Pressure gradient source: uncorrected Ubar = 1, pressure gradient = 0.0317151
smoothSolver:  Solving for omega, Initial residual = 6.28643e-06, Final residual = 6.28643e-06, No Iterations 0
smoothSolver:  Solving for k, Initial residual = 9.94005e-06, Final residual = 9.94005e-06, No Iterations 0
ExecutionTime = 5.6552 s  ClockTime = 6 s

Time = 2113s

smoothSolver:  Solving for Ux, Initial residual = 1.46405e-05, Final residual = 9.56296e-06, No Iterations 1
smoothSolver:  Solving for Uy, Initial residual = 0.000186005, Final residual = 1.85988e-05, No Iterations 5
Pressure gradient source: uncorrected Ubar = 1, pressure gradient = 0.0317136
GAMG:  Solving for p, Initial residual = 8.62187e-05, Final residual = 8.38681e-06, No Iterations 11
time step continuity errors : sum local = 2.77011e-10, global = 5.98653e-18, cumulative = -2.8325e-17
Pressure gradient source: uncorrected Ubar = 1, pressure gradient = 0.0317152
smoothSolver:  Solving for omega, Initial residual = 6.28643e-06, Final residual = 6.28643e-06, No Iterations 0
smoothSolver:  Solving for k, Initial residual = 9.95796e-06, Final residual = 9.95796e-06, No Iterations 0
ExecutionTime = 5.65793 s  ClockTime = 6 s

Time = 2114s

smoothSolver:  Solving for Ux, Initial residual = 1.45966e-05, Final residual = 9.53502e-06, No Iterations 1
smoothSolver:  Solving for Uy, Initial residual = 0.000171586, Final residual = 1.69442e-05, No Iterations 5
Pressure gradient source: uncorrected Ubar = 1, pressure gradient = 0.0317137
GAMG:  Solving for p, Initial residual = 8.12677e-05, Final residual = 7.24729e-06, No Iterations 13
time step continuity errors : sum local = 2.40729e-10, global = 3.15208e-18, cumulative = -2.5173e-17
Pressure gradient source: uncorrected Ubar = 1, pressure gradient = 0.0317153
smoothSolver:  Solving for omega, Initial residual = 6.28643e-06, Final residual = 6.28643e-06, No Iterations 0
smoothSolver:  Solving for k, Initial residual = 9.97691e-06, Final residual = 9.97691e-06, No Iterations 0
ExecutionTime = 5.66072 s  ClockTime = 6 s

Time = 2115s

smoothSolver:  Solving for Ux, Initial residual = 1.45528e-05, Final residual = 9.50717e-06, No Iterations 1
smoothSolver:  Solving for Uy, Initial residual = 0.000156671, Final residual = 1.54687e-05, No Iterations 5
Pressure gradient source: uncorrected Ubar = 1, pressure gradient = 0.0317139
GAMG:  Solving for p, Initial residual = 7.75149e-05, Final residual = 7.72036e-06, No Iterations 13
time step continuity errors : sum local = 2.55529e-10, global = -1.48309e-19, cumulative = -2.53213e-17
Pressure gradient source: uncorrected Ubar = 1, pressure gradient = 0.0317155
smoothSolver:  Solving for omega, Initial residual = 6.28643e-06, Final residual = 6.28643e-06, No Iterations 0
smoothSolver:  Solving for k, Initial residual = 9.99584e-06, Final residual = 9.99584e-06, No Iterations 0
ExecutionTime = 5.66356 s  ClockTime = 6 s

Time = 2116s

smoothSolver:  Solving for Ux, Initial residual = 1.45092e-05, Final residual = 9.47945e-06, No Iterations 1
smoothSolver:  Solving for Uy, Initial residual = 0.000141805, Final residual = 1.3993e-05, No Iterations 5
Pressure gradient source: uncorrected Ubar = 1, pressure gradient = 0.031714
GAMG:  Solving for p, Initial residual = 7.47075e-05, Final residual = 6.47504e-06, No Iterations 15
time step continuity errors : sum local = 2.1546e-10, global = -2.958e-19, cumulative = -2.56171e-17
Pressure gradient source: uncorrected Ubar = 1, pressure gradient = 0.0317156
smoothSolver:  Solving for omega, Initial residual = 6.28643e-06, Final residual = 6.28643e-06, No Iterations 0
smoothSolver:  Solving for k, Initial residual = 1.00147e-05, Final residual = 6.58618e-06, No Iterations 1
ExecutionTime = 5.66647 s  ClockTime = 6 s

Time = 2117s

smoothSolver:  Solving for Ux, Initial residual = 1.4463e-05, Final residual = 9.45011e-06, No Iterations 1
smoothSolver:  Solving for Uy, Initial residual = 0.000134233, Final residual = 1.31271e-05, No Iterations 5
Pressure gradient source: uncorrected Ubar = 1, pressure gradient = 0.031714
GAMG:  Solving for p, Initial residual = 7.86677e-05, Final residual = 7.8059e-06, No Iterations 14
time step continuity errors : sum local = 2.5656e-10, global = 3.65637e-18, cumulative = -2.19607e-17
Pressure gradient source: uncorrected Ubar = 1, pressure gradient = 0.0317156
smoothSolver:  Solving for omega, Initial residual = 6.28643e-06, Final residual = 6.28643e-06, No Iterations 0
smoothSolver:  Solving for k, Initial residual = 9.93165e-06, Final residual = 9.93165e-06, No Iterations 0
ExecutionTime = 5.6693 s  ClockTime = 6 s

Time = 2118s

smoothSolver:  Solving for Ux, Initial residual = 1.442e-05, Final residual = 9.42262e-06, No Iterations 1
smoothSolver:  Solving for Uy, Initial residual = 0.000122298, Final residual = 1.18803e-05, No Iterations 5
Pressure gradient source: uncorrected Ubar = 1, pressure gradient = 0.0317143
GAMG:  Solving for p, Initial residual = 7.44271e-05, Final residual = 7.01278e-06, No Iterations 15
time step continuity errors : sum local = 2.31943e-10, global = -4.00291e-18, cumulative = -2.59636e-17
Pressure gradient source: uncorrected Ubar = 1, pressure gradient = 0.0317158
smoothSolver:  Solving for omega, Initial residual = 6.28643e-06, Final residual = 6.28643e-06, No Iterations 0
smoothSolver:  Solving for k, Initial residual = 9.95032e-06, Final residual = 9.95032e-06, No Iterations 0
ExecutionTime = 5.67219 s  ClockTime = 6 s

Time = 2119s

smoothSolver:  Solving for Ux, Initial residual = 1.43771e-05, Final residual = 9.39511e-06, No Iterations 1
smoothSolver:  Solving for Uy, Initial residual = 0.000111739, Final residual = 1.06957e-05, No Iterations 5
Pressure gradient source: uncorrected Ubar = 1, pressure gradient = 0.0317144
GAMG:  Solving for p, Initial residual = 7.14609e-05, Final residual = 6.66063e-06, No Iterations 16
time step continuity errors : sum local = 2.20587e-10, global = 6.73357e-18, cumulative = -1.923e-17
Pressure gradient source: uncorrected Ubar = 1, pressure gradient = 0.0317159
smoothSolver:  Solving for omega, Initial residual = 6.28643e-06, Final residual = 6.28643e-06, No Iterations 0
smoothSolver:  Solving for k, Initial residual = 9.96902e-06, Final residual = 9.96902e-06, No Iterations 0
ExecutionTime = 5.67514 s  ClockTime = 6 s

Time = 2120s

smoothSolver:  Solving for Ux, Initial residual = 1.43344e-05, Final residual = 9.36764e-06, No Iterations 1
smoothSolver:  Solving for Uy, Initial residual = 0.000104583, Final residual = 9.86326e-06, No Iterations 5
Pressure gradient source: uncorrected Ubar = 1, pressure gradient = 0.0317146
GAMG:  Solving for p, Initial residual = 6.89946e-05, Final residual = 6.65608e-06, No Iterations 16
time step continuity errors : sum local = 2.2043e-10, global = -3.83074e-19, cumulative = -1.96131e-17
Pressure gradient source: uncorrected Ubar = 1, pressure gradient = 0.031716
smoothSolver:  Solving for omega, Initial residual = 6.28643e-06, Final residual = 6.28643e-06, No Iterations 0
smoothSolver:  Solving for k, Initial residual = 9.9881e-06, Final residual = 9.9881e-06, No Iterations 0
ExecutionTime = 5.67808 s  ClockTime = 6 s

Time = 2121s

smoothSolver:  Solving for Ux, Initial residual = 1.42918e-05, Final residual = 9.34022e-06, No Iterations 1
smoothSolver:  Solving for Uy, Initial residual = 9.99871e-05, Final residual = 9.32922e-06, No Iterations 5
Pressure gradient source: uncorrected Ubar = 1, pressure gradient = 0.0317148
GAMG:  Solving for p, Initial residual = 6.66871e-05, Final residual = 6.61659e-06, No Iterations 16
time step continuity errors : sum local = 2.19081e-10, global = -1.07879e-19, cumulative = -1.9721e-17
Pressure gradient source: uncorrected Ubar = 1, pressure gradient = 0.0317162
smoothSolver:  Solving for omega, Initial residual = 6.28643e-06, Final residual = 6.28643e-06, No Iterations 0
smoothSolver:  Solving for k, Initial residual = 1.00077e-05, Final residual = 6.57981e-06, No Iterations 1
ExecutionTime = 5.68102 s  ClockTime = 6 s


SIMPLE solution converged in 2121 iterations

End

