/*---------------------------------------------------------------------------*\
  =========                 |
  \\      /  F ield         | OpenFOAM: The Open Source CFD Toolbox
   \\    /   O peration     | Website:  https://openfoam.org
    \\  /    A nd           | Version:  10
     \\/     M anipulation  |
\*---------------------------------------------------------------------------*/
Build  : 10-e450dce21ea5
Exec   : blockMesh
Date   : Feb 20 2023
Time   : 14:17:14
Host   : "w530-R9YK46P"
PID    : 19006
I/O    : uncollated
Case   : /home/jdmezazeron/gitDanielMezaZ/turbulenceVisualized/Data/SimulationFiles/K36_Re5879
nProcs : 1
sigFpe : Enabling floating point exception trapping (FOAM_SIGFPE).
fileModificationChecking : Monitoring run-time modified files using timeStampMaster (fileModificationSkew 10)
allowSystemOperations : Allowing user-supplied system call operations

// * * * * * * * * * * * * * * * * * * * * * * * * * * * * * * * * * * * * * //
Create time

Deleting polyMesh directory
    "/home/jdmezazeron/gitDanielMezaZ/turbulenceVisualized/Data/SimulationFiles/K36_Re5879/constant/polyMesh"
Reading "blockMeshDict"

Creating block mesh from
    "system/blockMeshDict"
Creating block edges
No non-planar block faces defined
Creating topology blocks
Creating topology patches

Creating block mesh topology

Check topology

	Basic statistics
		Number of internal faces : 0
		Number of boundary faces : 6
		Number of defined boundary faces : 6
		Number of undefined boundary faces : 0
	Checking patch -> block consistency

Creating block offsets
Creating merge list .

Creating polyMesh from blockMesh
Creating patches
Creating cells
Creating points with scale 1
    Block 0 cell size :
        i : 0.5
        j : 0.00461374 .. 0.018455
        k : 2

Detected cyclic patches; ordering boundary faces

Writing polyMesh
----------------
Mesh Information
----------------
  boundingBox: (-1 0 -1) (1 1 1)
  nPoints: 1010
  nCells: 400
  nFaces: 1704
  nInternalFaces: 696
----------------
Patches
----------------
  patch 0 (start: 696 size: 100) name: inlet
  patch 1 (start: 796 size: 100) name: outlet
  patch 2 (start: 896 size: 4) name: fixedWalls-bottom
  patch 3 (start: 900 size: 4) name: fixedWalls-top
  patch 4 (start: 904 size: 800) name: frontAndBack

End

/*---------------------------------------------------------------------------*\
  =========                 |
  \\      /  F ield         | OpenFOAM: The Open Source CFD Toolbox
   \\    /   O peration     | Website:  https://openfoam.org
    \\  /    A nd           | Version:  10
     \\/     M anipulation  |
\*---------------------------------------------------------------------------*/
Build  : 10-e450dce21ea5
Exec   : simpleFoam
Date   : Feb 20 2023
Time   : 14:17:14
Host   : "w530-R9YK46P"
PID    : 19007
I/O    : uncollated
Case   : /home/jdmezazeron/gitDanielMezaZ/turbulenceVisualized/Data/SimulationFiles/K36_Re5879
nProcs : 1
sigFpe : Enabling floating point exception trapping (FOAM_SIGFPE).
fileModificationChecking : Monitoring run-time modified files using timeStampMaster (fileModificationSkew 10)
allowSystemOperations : Allowing user-supplied system call operations

// * * * * * * * * * * * * * * * * * * * * * * * * * * * * * * * * * * * * * //
Create time

Create mesh for time = 0


SIMPLE: Convergence criteria found
        U: tolerance 0.0001
        p: tolerance 0.01
        omega: tolerance 0.0001

Reading field p

Reading field U

Reading/calculating face flux field phi

Selecting viscosity model Newtonian
Selecting turbulence model type RAS
Selecting RAS turbulence model kOmegaSST
Selecting patchDistMethod meshWave
RAS
{
    RASModel        kOmegaSST;
    turbulence      on;
    printCoeffs     on;
    alphaK1         0.85;
    alphaK2         1;
    alphaOmega1     0.5;
    alphaOmega2     0.856;
    gamma1          0.555556;
    gamma2          0.44;
    beta1           0.075;
    beta2           0.0828;
    betaStar        0.09;
    a1              0.31;
    b1              1;
    c1              10;
    F3              false;
}

No MRF models present

--> FOAM Warning : Creating fvModels from "system/fvOptions" rather than constant/fvModels
No fvModels present
--> FOAM Warning : Creating fvConstraints from "system/fvOptions"

Selecting finite volume constraint type meanVelocityForce
    Name: momentumSource
    - selecting all cells
    - selected 400 cell(s) with volume 4
    Initial pressure gradient = 0


Starting time loop

turbulenceFields stressComponents: storing fields:
    R

Time = 1s

smoothSolver:  Solving for Ux, Initial residual = 0, Final residual = 0, No Iterations 0
smoothSolver:  Solving for Uy, Initial residual = 0, Final residual = 0, No Iterations 0
Pressure gradient source: uncorrected Ubar = 0, pressure gradient = 1096.69
GAMG:  Solving for p, Initial residual = 0.999996, Final residual = 0.055614, No Iterations 3
time step continuity errors : sum local = 1.01179e-16, global = -3.37194e-18, cumulative = -3.37194e-18
Pressure gradient source: uncorrected Ubar = 0.884653, pressure gradient = 126.499
smoothSolver:  Solving for omega, Initial residual = 0.254078, Final residual = 0.0153515, No Iterations 3
smoothSolver:  Solving for k, Initial residual = 1, Final residual = 0.0859356, No Iterations 4
ExecutionTime = 0.013997 s  ClockTime = 0 s

Time = 2s

smoothSolver:  Solving for Ux, Initial residual = 0.993436, Final residual = 0.096502, No Iterations 6
smoothSolver:  Solving for Uy, Initial residual = 1, Final residual = 0.0885043, No Iterations 5
Pressure gradient source: uncorrected Ubar = 65.5727, pressure gradient = -938.219
GAMG:  Solving for p, Initial residual = 1, Final residual = 0.0867534, No Iterations 16
time step continuity errors : sum local = 0.0518626, global = 3.92617e-17, cumulative = 3.58897e-17
Pressure gradient source: uncorrected Ubar = 9.42909, pressure gradient = -12.4851
smoothSolver:  Solving for omega, Initial residual = 0.13573, Final residual = 0.00362197, No Iterations 1
smoothSolver:  Solving for k, Initial residual = 0.507258, Final residual = 0.0360183, No Iterations 2
ExecutionTime = 0.017134 s  ClockTime = 0 s

Time = 3s

smoothSolver:  Solving for Ux, Initial residual = 0.348917, Final residual = 0.0277709, No Iterations 6
smoothSolver:  Solving for Uy, Initial residual = 0.651098, Final residual = 0.0236307, No Iterations 2
Pressure gradient source: uncorrected Ubar = -1.65592, pressure gradient = 96.3846
GAMG:  Solving for p, Initial residual = 0.192992, Final residual = 0.0153521, No Iterations 9
time step continuity errors : sum local = 0.0213138, global = -6.35342e-17, cumulative = -2.76445e-17
Pressure gradient source: uncorrected Ubar = 0.673294, pressure gradient = 0.90707
smoothSolver:  Solving for omega, Initial residual = 0.0534459, Final residual = 0.00338104, No Iterations 1
smoothSolver:  Solving for k, Initial residual = 0.583007, Final residual = 0.0283118, No Iterations 2
ExecutionTime = 0.019826 s  ClockTime = 0 s

Time = 4s

smoothSolver:  Solving for Ux, Initial residual = 0.084641, Final residual = 0.00758301, No Iterations 4
smoothSolver:  Solving for Uy, Initial residual = 0.371268, Final residual = 0.033247, No Iterations 2
Pressure gradient source: uncorrected Ubar = 1.00632, pressure gradient = 0.75043
GAMG:  Solving for p, Initial residual = 0.0996427, Final residual = 0.00860019, No Iterations 11
time step continuity errors : sum local = 0.0319726, global = 8.27246e-17, cumulative = 5.50801e-17
Pressure gradient source: uncorrected Ubar = 1.00157, pressure gradient = 0.868263
smoothSolver:  Solving for omega, Initial residual = 0.0293533, Final residual = 0.00139107, No Iterations 2
smoothSolver:  Solving for k, Initial residual = 0.727378, Final residual = 0.0215423, No Iterations 2
ExecutionTime = 0.022591 s  ClockTime = 0 s

Time = 5s

smoothSolver:  Solving for Ux, Initial residual = 0.0926897, Final residual = 0.00764279, No Iterations 4
smoothSolver:  Solving for Uy, Initial residual = 0.449449, Final residual = 0.0360709, No Iterations 2
Pressure gradient source: uncorrected Ubar = 0.959459, pressure gradient = 1.94397
GAMG:  Solving for p, Initial residual = 0.140961, Final residual = 0.0127392, No Iterations 12
time step continuity errors : sum local = 0.0411579, global = -4.22703e-17, cumulative = 1.28098e-17
Pressure gradient source: uncorrected Ubar = 0.995026, pressure gradient = 1.00024
smoothSolver:  Solving for omega, Initial residual = 0.0891937, Final residual = 0.00229414, No Iterations 2
smoothSolver:  Solving for k, Initial residual = 0.615018, Final residual = 0.00678853, No Iterations 2
ExecutionTime = 0.025362 s  ClockTime = 0 s

Time = 6s

smoothSolver:  Solving for Ux, Initial residual = 0.100195, Final residual = 0.00947061, No Iterations 3
smoothSolver:  Solving for Uy, Initial residual = 0.606036, Final residual = 0.0406675, No Iterations 2
Pressure gradient source: uncorrected Ubar = 0.965859, pressure gradient = 1.99457
GAMG:  Solving for p, Initial residual = 0.238919, Final residual = 0.0194978, No Iterations 12
time step continuity errors : sum local = 0.0518173, global = -3.46945e-18, cumulative = 9.34033e-18
Pressure gradient source: uncorrected Ubar = 0.996867, pressure gradient = 1.09148
smoothSolver:  Solving for omega, Initial residual = 0.175263, Final residual = 0.0163211, No Iterations 1
bounding omega, min: -2.63614 max: 5114.2 average: 141.144
smoothSolver:  Solving for k, Initial residual = 0.430763, Final residual = 0.0122906, No Iterations 2
ExecutionTime = 0.028272 s  ClockTime = 0 s

Time = 7s

smoothSolver:  Solving for Ux, Initial residual = 0.0863181, Final residual = 0.00685749, No Iterations 3
smoothSolver:  Solving for Uy, Initial residual = 0.54956, Final residual = 0.0481801, No Iterations 2
Pressure gradient source: uncorrected Ubar = 0.866591, pressure gradient = 5.98098
GAMG:  Solving for p, Initial residual = 0.376706, Final residual = 0.0346279, No Iterations 9
time step continuity errors : sum local = 0.083422, global = 5.80387e-18, cumulative = 1.51442e-17
Pressure gradient source: uncorrected Ubar = 0.978092, pressure gradient = 1.89441
smoothSolver:  Solving for omega, Initial residual = 0.191003, Final residual = 0.00125216, No Iterations 2
bounding omega, min: -5.40845 max: 5114.2 average: 162.374
smoothSolver:  Solving for k, Initial residual = 0.321864, Final residual = 0.00376172, No Iterations 2
ExecutionTime = 0.031029 s  ClockTime = 0 s

Time = 8s

smoothSolver:  Solving for Ux, Initial residual = 0.106363, Final residual = 0.00940363, No Iterations 3
smoothSolver:  Solving for Uy, Initial residual = 0.430054, Final residual = 0.0398526, No Iterations 2
Pressure gradient source: uncorrected Ubar = 0.987881, pressure gradient = 2.42353
GAMG:  Solving for p, Initial residual = 0.271441, Final residual = 0.0237677, No Iterations 12
time step continuity errors : sum local = 0.104615, global = -2.34181e-16, cumulative = -2.19037e-16
Pressure gradient source: uncorrected Ubar = 0.99313, pressure gradient = 2.19434
smoothSolver:  Solving for omega, Initial residual = 0.202775, Final residual = 0.00223557, No Iterations 2
bounding omega, min: -1.63975 max: 5114.2 average: 144.411
smoothSolver:  Solving for k, Initial residual = 0.242682, Final residual = 0.00459829, No Iterations 2
ExecutionTime = 0.033848 s  ClockTime = 0 s

Time = 9s

smoothSolver:  Solving for Ux, Initial residual = 0.0771893, Final residual = 0.00606095, No Iterations 3
smoothSolver:  Solving for Uy, Initial residual = 0.458488, Final residual = 0.0164429, No Iterations 3
Pressure gradient source: uncorrected Ubar = 0.856466, pressure gradient = 10.0358
GAMG:  Solving for p, Initial residual = 0.250679, Final residual = 0.0183504, No Iterations 8
time step continuity errors : sum local = 0.122304, global = -1.52425e-16, cumulative = -3.71462e-16
Pressure gradient source: uncorrected Ubar = 0.975574, pressure gradient = 3.52875
smoothSolver:  Solving for omega, Initial residual = 0.113389, Final residual = 0.0109095, No Iterations 1
bounding omega, min: -11.7585 max: 5114.2 average: 148.202
smoothSolver:  Solving for k, Initial residual = 0.239189, Final residual = 0.0113273, No Iterations 2
ExecutionTime = 0.036569 s  ClockTime = 0 s

Time = 10s

smoothSolver:  Solving for Ux, Initial residual = 0.0607283, Final residual = 0.00500887, No Iterations 3
smoothSolver:  Solving for Uy, Initial residual = 0.404032, Final residual = 0.0169547, No Iterations 3
Pressure gradient source: uncorrected Ubar = 0.880135, pressure gradient = 11.196
GAMG:  Solving for p, Initial residual = 0.358248, Final residual = 0.034901, No Iterations 10
time step continuity errors : sum local = 0.152326, global = -3.25261e-17, cumulative = -4.03988e-16
Pressure gradient source: uncorrected Ubar = 0.998859, pressure gradient = 3.60175
smoothSolver:  Solving for omega, Initial residual = 0.118007, Final residual = 0.0033439, No Iterations 2
smoothSolver:  Solving for k, Initial residual = 0.171171, Final residual = 0.0135154, No Iterations 2
ExecutionTime = 0.03933 s  ClockTime = 0 s

Time = 11s

smoothSolver:  Solving for Ux, Initial residual = 0.0435845, Final residual = 0.00276068, No Iterations 4
smoothSolver:  Solving for Uy, Initial residual = 0.424459, Final residual = 0.0189106, No Iterations 3
Pressure gradient source: uncorrected Ubar = 0.882961, pressure gradient = 11.451
GAMG:  Solving for p, Initial residual = 0.262259, Final residual = 0.0256772, No Iterations 7
time step continuity errors : sum local = 0.172612, global = 7.67344e-17, cumulative = -3.27254e-16
Pressure gradient source: uncorrected Ubar = 0.993853, pressure gradient = 4.01397
smoothSolver:  Solving for omega, Initial residual = 0.0873348, Final residual = 0.00363816, No Iterations 2
smoothSolver:  Solving for k, Initial residual = 0.144273, Final residual = 0.0125678, No Iterations 2
ExecutionTime = 0.0419 s  ClockTime = 0 s

Time = 12s

smoothSolver:  Solving for Ux, Initial residual = 0.0341329, Final residual = 0.00234893, No Iterations 4
smoothSolver:  Solving for Uy, Initial residual = 0.404486, Final residual = 0.0207838, No Iterations 3
Pressure gradient source: uncorrected Ubar = 0.954966, pressure gradient = 7.37824
GAMG:  Solving for p, Initial residual = 0.249998, Final residual = 0.0235216, No Iterations 9
time step continuity errors : sum local = 0.146299, global = 1.00519e-16, cumulative = -2.26735e-16
Pressure gradient source: uncorrected Ubar = 0.997161, pressure gradient = 4.22602
smoothSolver:  Solving for omega, Initial residual = 0.0855558, Final residual = 0.00408951, No Iterations 2
smoothSolver:  Solving for k, Initial residual = 0.113123, Final residual = 0.00490964, No Iterations 3
ExecutionTime = 0.044594 s  ClockTime = 0 s

Time = 13s

smoothSolver:  Solving for Ux, Initial residual = 0.0274406, Final residual = 0.00194256, No Iterations 4
smoothSolver:  Solving for Uy, Initial residual = 0.439678, Final residual = 0.0257992, No Iterations 3
Pressure gradient source: uncorrected Ubar = 0.934753, pressure gradient = 9.98502
GAMG:  Solving for p, Initial residual = 0.24692, Final residual = 0.0245544, No Iterations 7
time step continuity errors : sum local = 0.149197, global = -5.35596e-17, cumulative = -2.80294e-16
Pressure gradient source: uncorrected Ubar = 0.988306, pressure gradient = 5.2582
smoothSolver:  Solving for omega, Initial residual = 0.0734451, Final residual = 0.00416442, No Iterations 2
smoothSolver:  Solving for k, Initial residual = 0.100542, Final residual = 0.00574348, No Iterations 3
ExecutionTime = 0.047243 s  ClockTime = 0 s

Time = 14s

smoothSolver:  Solving for Ux, Initial residual = 0.0229648, Final residual = 0.00173925, No Iterations 4
smoothSolver:  Solving for Uy, Initial residual = 0.344479, Final residual = 0.0200478, No Iterations 3
Pressure gradient source: uncorrected Ubar = 0.953523, pressure gradient = 9.99011
GAMG:  Solving for p, Initial residual = 0.277456, Final residual = 0.0269722, No Iterations 9
time step continuity errors : sum local = 0.137582, global = -3.47826e-17, cumulative = -3.15077e-16
Pressure gradient source: uncorrected Ubar = 0.994805, pressure gradient = 5.78716
smoothSolver:  Solving for omega, Initial residual = 0.0742522, Final residual = 0.00530973, No Iterations 2
smoothSolver:  Solving for k, Initial residual = 0.0868789, Final residual = 0.00619517, No Iterations 3
ExecutionTime = 0.049909 s  ClockTime = 0 s

Time = 15s

smoothSolver:  Solving for Ux, Initial residual = 0.0204581, Final residual = 0.00163405, No Iterations 4
smoothSolver:  Solving for Uy, Initial residual = 0.349589, Final residual = 0.0195684, No Iterations 3
Pressure gradient source: uncorrected Ubar = 0.962459, pressure gradient = 10.1909
GAMG:  Solving for p, Initial residual = 0.155662, Final residual = 0.0145108, No Iterations 4
time step continuity errors : sum local = 0.12852, global = 4.45573e-17, cumulative = -2.70519e-16
Pressure gradient source: uncorrected Ubar = 0.999693, pressure gradient = 5.82314
smoothSolver:  Solving for omega, Initial residual = 0.0617252, Final residual = 0.00506077, No Iterations 2
smoothSolver:  Solving for k, Initial residual = 0.0856726, Final residual = 0.00768616, No Iterations 3
ExecutionTime = 0.052386 s  ClockTime = 0 s

Time = 16s

smoothSolver:  Solving for Ux, Initial residual = 0.0184055, Final residual = 0.00159491, No Iterations 4
smoothSolver:  Solving for Uy, Initial residual = 0.374324, Final residual = 0.0232196, No Iterations 3
Pressure gradient source: uncorrected Ubar = 0.968687, pressure gradient = 9.98637
GAMG:  Solving for p, Initial residual = 0.146066, Final residual = 0.00880922, No Iterations 9
time step continuity errors : sum local = 0.097539, global = 3.5345e-17, cumulative = -2.35174e-16
Pressure gradient source: uncorrected Ubar = 1.00056, pressure gradient = 5.74913
smoothSolver:  Solving for omega, Initial residual = 0.0445388, Final residual = 0.00239248, No Iterations 3
smoothSolver:  Solving for k, Initial residual = 0.0795716, Final residual = 0.00477856, No Iterations 4
ExecutionTime = 0.055128 s  ClockTime = 0 s

Time = 17s

smoothSolver:  Solving for Ux, Initial residual = 0.0162064, Final residual = 0.00161744, No Iterations 4
smoothSolver:  Solving for Uy, Initial residual = 0.250813, Final residual = 0.0186984, No Iterations 3
Pressure gradient source: uncorrected Ubar = 0.961893, pressure gradient = 11.2605
GAMG:  Solving for p, Initial residual = 0.142542, Final residual = 0.0100534, No Iterations 9
time step continuity errors : sum local = 0.0823378, global = -7.32921e-17, cumulative = -3.08466e-16
Pressure gradient source: uncorrected Ubar = 0.996837, pressure gradient = 6.20663
smoothSolver:  Solving for omega, Initial residual = 0.0373242, Final residual = 0.00272533, No Iterations 3
smoothSolver:  Solving for k, Initial residual = 0.0759416, Final residual = 0.00565263, No Iterations 4
ExecutionTime = 0.057829 s  ClockTime = 0 s

Time = 18s

smoothSolver:  Solving for Ux, Initial residual = 0.0151369, Final residual = 0.00106569, No Iterations 5
smoothSolver:  Solving for Uy, Initial residual = 0.31915, Final residual = 0.0195686, No Iterations 3
Pressure gradient source: uncorrected Ubar = 1.00327, pressure gradient = 5.70463
GAMG:  Solving for p, Initial residual = 0.127856, Final residual = 0.0126318, No Iterations 10
time step continuity errors : sum local = 0.0764042, global = -3.51654e-17, cumulative = -3.43632e-16
Pressure gradient source: uncorrected Ubar = 1.00222, pressure gradient = 5.86608
smoothSolver:  Solving for omega, Initial residual = 0.0320141, Final residual = 0.00295572, No Iterations 3
smoothSolver:  Solving for k, Initial residual = 0.0686065, Final residual = 0.00579426, No Iterations 4
ExecutionTime = 0.060736 s  ClockTime = 0 s

Time = 19s

smoothSolver:  Solving for Ux, Initial residual = 0.0141671, Final residual = 0.00105352, No Iterations 5
smoothSolver:  Solving for Uy, Initial residual = 0.300855, Final residual = 0.0248943, No Iterations 3
Pressure gradient source: uncorrected Ubar = 1.00717, pressure gradient = 4.67588
GAMG:  Solving for p, Initial residual = 0.162576, Final residual = 0.0146529, No Iterations 8
time step continuity errors : sum local = 0.0716029, global = -8.6316e-17, cumulative = -4.29948e-16
Pressure gradient source: uncorrected Ubar = 0.999908, pressure gradient = 5.88133
smoothSolver:  Solving for omega, Initial residual = 0.0275296, Final residual = 0.00173229, No Iterations 4
smoothSolver:  Solving for k, Initial residual = 0.0627647, Final residual = 0.00620884, No Iterations 4
ExecutionTime = 0.063575 s  ClockTime = 0 s

Time = 20s

smoothSolver:  Solving for Ux, Initial residual = 0.013184, Final residual = 0.00103371, No Iterations 5
smoothSolver:  Solving for Uy, Initial residual = 0.356395, Final residual = 0.0283487, No Iterations 3
Pressure gradient source: uncorrected Ubar = 1.01148, pressure gradient = 3.80628
GAMG:  Solving for p, Initial residual = 0.111811, Final residual = 0.00959202, No Iterations 9
time step continuity errors : sum local = 0.066961, global = 2.97613e-17, cumulative = -4.00187e-16
Pressure gradient source: uncorrected Ubar = 1.00139, pressure gradient = 5.62982
smoothSolver:  Solving for omega, Initial residual = 0.0239522, Final residual = 0.00190508, No Iterations 4
smoothSolver:  Solving for k, Initial residual = 0.0569211, Final residual = 0.00383558, No Iterations 5
ExecutionTime = 0.066326 s  ClockTime = 0 s

Time = 21s

smoothSolver:  Solving for Ux, Initial residual = 0.0123303, Final residual = 0.000996241, No Iterations 5
smoothSolver:  Solving for Uy, Initial residual = 0.322644, Final residual = 0.027656, No Iterations 3
Pressure gradient source: uncorrected Ubar = 1.00255, pressure gradient = 5.11878
GAMG:  Solving for p, Initial residual = 0.080035, Final residual = 0.00612886, No Iterations 9
time step continuity errors : sum local = 0.0542235, global = -8.04478e-17, cumulative = -4.80634e-16
Pressure gradient source: uncorrected Ubar = 0.999932, pressure gradient = 5.6434
smoothSolver:  Solving for omega, Initial residual = 0.0227693, Final residual = 0.0021277, No Iterations 4
smoothSolver:  Solving for k, Initial residual = 0.0511241, Final residual = 0.00394922, No Iterations 5
ExecutionTime = 0.069037 s  ClockTime = 0 s

Time = 22s

smoothSolver:  Solving for Ux, Initial residual = 0.0117564, Final residual = 0.000960941, No Iterations 5
smoothSolver:  Solving for Uy, Initial residual = 0.228618, Final residual = 0.0226936, No Iterations 3
Pressure gradient source: uncorrected Ubar = 1.00319, pressure gradient = 4.94707
GAMG:  Solving for p, Initial residual = 0.0602412, Final residual = 0.00505269, No Iterations 8
time step continuity errors : sum local = 0.0521517, global = -5.65954e-17, cumulative = -5.3723e-16
Pressure gradient source: uncorrected Ubar = 0.999589, pressure gradient = 5.73331
smoothSolver:  Solving for omega, Initial residual = 0.0212317, Final residual = 0.00211986, No Iterations 4
smoothSolver:  Solving for k, Initial residual = 0.0465555, Final residual = 0.00403583, No Iterations 5
ExecutionTime = 0.071735 s  ClockTime = 0 s

Time = 23s

smoothSolver:  Solving for Ux, Initial residual = 0.0112424, Final residual = 0.000924239, No Iterations 5
smoothSolver:  Solving for Uy, Initial residual = 0.201421, Final residual = 0.0103748, No Iterations 4
Pressure gradient source: uncorrected Ubar = 1.00787, pressure gradient = 3.86521
GAMG:  Solving for p, Initial residual = 0.0473706, Final residual = 0.00375114, No Iterations 9
time step continuity errors : sum local = 0.0356744, global = 5.04154e-17, cumulative = -4.86814e-16
Pressure gradient source: uncorrected Ubar = 1.00028, pressure gradient = 5.66603
smoothSolver:  Solving for omega, Initial residual = 0.0215777, Final residual = 0.00134459, No Iterations 5
smoothSolver:  Solving for k, Initial residual = 0.0411498, Final residual = 0.00364777, No Iterations 5
ExecutionTime = 0.074475 s  ClockTime = 0 s

Time = 24s

smoothSolver:  Solving for Ux, Initial residual = 0.0107591, Final residual = 0.000886898, No Iterations 5
smoothSolver:  Solving for Uy, Initial residual = 0.2146, Final residual = 0.0113361, No Iterations 4
Pressure gradient source: uncorrected Ubar = 1.00604, pressure gradient = 4.14015
GAMG:  Solving for p, Initial residual = 0.0362866, Final residual = 0.00322197, No Iterations 9
time step continuity errors : sum local = 0.0263452, global = -5.63751e-17, cumulative = -5.43189e-16
Pressure gradient source: uncorrected Ubar = 1.00059, pressure gradient = 5.51598
smoothSolver:  Solving for omega, Initial residual = 0.0211542, Final residual = 0.00134963, No Iterations 5
smoothSolver:  Solving for k, Initial residual = 0.037627, Final residual = 0.00349576, No Iterations 5
ExecutionTime = 0.077223 s  ClockTime = 0 s

Time = 25s

smoothSolver:  Solving for Ux, Initial residual = 0.0103209, Final residual = 0.000851554, No Iterations 5
smoothSolver:  Solving for Uy, Initial residual = 0.206687, Final residual = 0.0134363, No Iterations 4
Pressure gradient source: uncorrected Ubar = 1.00283, pressure gradient = 4.75802
GAMG:  Solving for p, Initial residual = 0.0391709, Final residual = 0.00356903, No Iterations 9
time step continuity errors : sum local = 0.0197909, global = -3.9692e-17, cumulative = -5.82881e-16
Pressure gradient source: uncorrected Ubar = 1.00012, pressure gradient = 5.4828
smoothSolver:  Solving for omega, Initial residual = 0.020871, Final residual = 0.0014761, No Iterations 5
smoothSolver:  Solving for k, Initial residual = 0.0341841, Final residual = 0.00333053, No Iterations 5
ExecutionTime = 0.079949 s  ClockTime = 0 s

Time = 26s

smoothSolver:  Solving for Ux, Initial residual = 0.00993008, Final residual = 0.000821261, No Iterations 5
smoothSolver:  Solving for Uy, Initial residual = 0.180175, Final residual = 0.01355, No Iterations 4
Pressure gradient source: uncorrected Ubar = 1.00304, pressure gradient = 4.63418
GAMG:  Solving for p, Initial residual = 0.0536472, Final residual = 0.00505436, No Iterations 9
time step continuity errors : sum local = 0.0189518, global = 8.89046e-17, cumulative = -4.93977e-16
Pressure gradient source: uncorrected Ubar = 1.00031, pressure gradient = 5.39655
smoothSolver:  Solving for omega, Initial residual = 0.0201766, Final residual = 0.00144671, No Iterations 5
smoothSolver:  Solving for k, Initial residual = 0.0315179, Final residual = 0.00201851, No Iterations 6
ExecutionTime = 0.082703 s  ClockTime = 0 s

Time = 27s

smoothSolver:  Solving for Ux, Initial residual = 0.00954713, Final residual = 0.000790149, No Iterations 5
smoothSolver:  Solving for Uy, Initial residual = 0.177133, Final residual = 0.0126429, No Iterations 4
Pressure gradient source: uncorrected Ubar = 1.00211, pressure gradient = 4.77379
GAMG:  Solving for p, Initial residual = 0.0886102, Final residual = 0.00856144, No Iterations 7
time step continuity errors : sum local = 0.0193491, global = -1.89778e-17, cumulative = -5.12955e-16
Pressure gradient source: uncorrected Ubar = 1.00012, pressure gradient = 5.36008
smoothSolver:  Solving for omega, Initial residual = 0.0193547, Final residual = 0.00153264, No Iterations 5
smoothSolver:  Solving for k, Initial residual = 0.0289992, Final residual = 0.00193129, No Iterations 6
ExecutionTime = 0.085362 s  ClockTime = 0 s

Time = 28s

smoothSolver:  Solving for Ux, Initial residual = 0.00920401, Final residual = 0.000763346, No Iterations 5
smoothSolver:  Solving for Uy, Initial residual = 0.158574, Final residual = 0.0119519, No Iterations 4
Pressure gradient source: uncorrected Ubar = 1.00185, pressure gradient = 4.78102
GAMG:  Solving for p, Initial residual = 0.0441687, Final residual = 0.00410394, No Iterations 7
time step continuity errors : sum local = 0.0178446, global = -2.7759e-17, cumulative = -5.40714e-16
Pressure gradient source: uncorrected Ubar = 1.00017, pressure gradient = 5.3068
smoothSolver:  Solving for omega, Initial residual = 0.0186866, Final residual = 0.00149522, No Iterations 5
smoothSolver:  Solving for k, Initial residual = 0.0267453, Final residual = 0.00183774, No Iterations 6
ExecutionTime = 0.08804 s  ClockTime = 0 s

Time = 29s

smoothSolver:  Solving for Ux, Initial residual = 0.0088855, Final residual = 0.00073872, No Iterations 5
smoothSolver:  Solving for Uy, Initial residual = 0.136804, Final residual = 0.0115176, No Iterations 4
Pressure gradient source: uncorrected Ubar = 1.00243, pressure gradient = 4.50845
GAMG:  Solving for p, Initial residual = 0.0261974, Final residual = 0.00221273, No Iterations 7
time step continuity errors : sum local = 0.015014, global = 1.78089e-17, cumulative = -5.22905e-16
Pressure gradient source: uncorrected Ubar = 1.0002, pressure gradient = 5.24197
smoothSolver:  Solving for omega, Initial residual = 0.0174296, Final residual = 0.00146871, No Iterations 5
smoothSolver:  Solving for k, Initial residual = 0.024661, Final residual = 0.00174428, No Iterations 6
ExecutionTime = 0.090701 s  ClockTime = 0 s

Time = 30s

smoothSolver:  Solving for Ux, Initial residual = 0.00858859, Final residual = 0.000715304, No Iterations 5
smoothSolver:  Solving for Uy, Initial residual = 0.117652, Final residual = 0.0110215, No Iterations 4
Pressure gradient source: uncorrected Ubar = 1.00307, pressure gradient = 4.17379
GAMG:  Solving for p, Initial residual = 0.0163594, Final residual = 0.00149831, No Iterations 9
time step continuity errors : sum local = 0.0133686, global = 2.25514e-17, cumulative = -5.00353e-16
Pressure gradient source: uncorrected Ubar = 1.00033, pressure gradient = 5.12783
smoothSolver:  Solving for omega, Initial residual = 0.0170544, Final residual = 0.00153722, No Iterations 5
smoothSolver:  Solving for k, Initial residual = 0.0228936, Final residual = 0.00164811, No Iterations 6
ExecutionTime = 0.093431 s  ClockTime = 0 s

Time = 31s

smoothSolver:  Solving for Ux, Initial residual = 0.00832021, Final residual = 0.000694242, No Iterations 5
smoothSolver:  Solving for Uy, Initial residual = 0.114169, Final residual = 0.0102435, No Iterations 4
Pressure gradient source: uncorrected Ubar = 1.00181, pressure gradient = 4.46279
GAMG:  Solving for p, Initial residual = 0.0110484, Final residual = 0.000889216, No Iterations 11
time step continuity errors : sum local = 0.00954093, global = 8.26435e-17, cumulative = -4.1771e-16
Pressure gradient source: uncorrected Ubar = 1.00011, pressure gradient = 5.08673
smoothSolver:  Solving for omega, Initial residual = 0.0164335, Final residual = 0.00147896, No Iterations 5
smoothSolver:  Solving for k, Initial residual = 0.0212992, Final residual = 0.00156017, No Iterations 6
ExecutionTime = 0.096278 s  ClockTime = 0 s

Time = 32s

smoothSolver:  Solving for Ux, Initial residual = 0.00806628, Final residual = 0.00067434, No Iterations 5
smoothSolver:  Solving for Uy, Initial residual = 0.105046, Final residual = 0.00920369, No Iterations 4
Pressure gradient source: uncorrected Ubar = 1.00197, pressure gradient = 4.31548
GAMG:  Solving for p, Initial residual = 0.00715399, Final residual = 0.000609711, No Iterations 11
time step continuity errors : sum local = 0.00734692, global = -7.07984e-17, cumulative = -4.88508e-16
Pressure gradient source: uncorrected Ubar = 1.00013, pressure gradient = 5.0352
smoothSolver:  Solving for omega, Initial residual = 0.0160541, Final residual = 0.00145582, No Iterations 5
smoothSolver:  Solving for k, Initial residual = 0.0197411, Final residual = 0.00145892, No Iterations 6
ExecutionTime = 0.099116 s  ClockTime = 0 s

Time = 33s

smoothSolver:  Solving for Ux, Initial residual = 0.0078369, Final residual = 0.000655163, No Iterations 5
smoothSolver:  Solving for Uy, Initial residual = 0.091488, Final residual = 0.00856226, No Iterations 4
Pressure gradient source: uncorrected Ubar = 1.00126, pressure gradient = 4.51488
GAMG:  Solving for p, Initial residual = 0.00554999, Final residual = 0.000543066, No Iterations 9
time step continuity errors : sum local = 0.00664909, global = -6.04981e-17, cumulative = -5.49006e-16
Pressure gradient source: uncorrected Ubar = 1.00002, pressure gradient = 5.02604
smoothSolver:  Solving for omega, Initial residual = 0.0151178, Final residual = 0.0014113, No Iterations 5
smoothSolver:  Solving for k, Initial residual = 0.0183224, Final residual = 0.00136604, No Iterations 6
ExecutionTime = 0.101861 s  ClockTime = 0 s

Time = 34s

smoothSolver:  Solving for Ux, Initial residual = 0.00760579, Final residual = 0.00062965, No Iterations 5
smoothSolver:  Solving for Uy, Initial residual = 0.0771269, Final residual = 0.00465272, No Iterations 5
Pressure gradient source: uncorrected Ubar = 1.00004, pressure gradient = 5.00995
GAMG:  Solving for p, Initial residual = 0.00457485, Final residual = 0.000389061, No Iterations 9
time step continuity errors : sum local = 0.00469622, global = 2.6834e-17, cumulative = -5.22172e-16
Pressure gradient source: uncorrected Ubar = 0.99986, pressure gradient = 5.08693
smoothSolver:  Solving for omega, Initial residual = 0.013929, Final residual = 0.00137077, No Iterations 5
smoothSolver:  Solving for k, Initial residual = 0.0166203, Final residual = 0.00124226, No Iterations 6
ExecutionTime = 0.104627 s  ClockTime = 0 s

Time = 35s

smoothSolver:  Solving for Ux, Initial residual = 0.00731523, Final residual = 0.000604018, No Iterations 5
smoothSolver:  Solving for Uy, Initial residual = 0.0651966, Final residual = 0.00420102, No Iterations 5
Pressure gradient source: uncorrected Ubar = 1.00016, pressure gradient = 5.01423
GAMG:  Solving for p, Initial residual = 0.00402047, Final residual = 0.000360442, No Iterations 7
time step continuity errors : sum local = 0.00398429, global = 7.44576e-17, cumulative = -4.47715e-16
Pressure gradient source: uncorrected Ubar = 0.99987, pressure gradient = 5.14634
smoothSolver:  Solving for omega, Initial residual = 0.0127339, Final residual = 0.00124961, No Iterations 5
smoothSolver:  Solving for k, Initial residual = 0.0150373, Final residual = 0.00113332, No Iterations 6
ExecutionTime = 0.107317 s  ClockTime = 0 s

Time = 36s

smoothSolver:  Solving for Ux, Initial residual = 0.00702357, Final residual = 0.000578978, No Iterations 5
smoothSolver:  Solving for Uy, Initial residual = 0.0553661, Final residual = 0.00379722, No Iterations 5
Pressure gradient source: uncorrected Ubar = 0.999519, pressure gradient = 5.38059
GAMG:  Solving for p, Initial residual = 0.00349358, Final residual = 0.000280508, No Iterations 6
time step continuity errors : sum local = 0.00286141, global = -7.14491e-17, cumulative = -5.19164e-16
Pressure gradient source: uncorrected Ubar = 0.999775, pressure gradient = 5.25601
smoothSolver:  Solving for omega, Initial residual = 0.0118153, Final residual = 0.000785514, No Iterations 6
smoothSolver:  Solving for k, Initial residual = 0.0136646, Final residual = 0.00103376, No Iterations 6
ExecutionTime = 0.10995 s  ClockTime = 0 s

Time = 37s

smoothSolver:  Solving for Ux, Initial residual = 0.00675145, Final residual = 0.000555679, No Iterations 5
smoothSolver:  Solving for Uy, Initial residual = 0.047958, Final residual = 0.00341374, No Iterations 5
Pressure gradient source: uncorrected Ubar = 0.999495, pressure gradient = 5.51833
GAMG:  Solving for p, Initial residual = 0.00302865, Final residual = 0.000284937, No Iterations 4
time step continuity errors : sum local = 0.00236857, global = -9.70361e-18, cumulative = -5.28867e-16
Pressure gradient source: uncorrected Ubar = 0.999777, pressure gradient = 5.37211
smoothSolver:  Solving for omega, Initial residual = 0.0111505, Final residual = 0.000763936, No Iterations 6
smoothSolver:  Solving for k, Initial residual = 0.0124132, Final residual = 0.000951857, No Iterations 6
ExecutionTime = 0.112489 s  ClockTime = 0 s

Time = 38s

smoothSolver:  Solving for Ux, Initial residual = 0.00651513, Final residual = 0.000535118, No Iterations 5
smoothSolver:  Solving for Uy, Initial residual = 0.0415798, Final residual = 0.00317866, No Iterations 5
Pressure gradient source: uncorrected Ubar = 0.999879, pressure gradient = 5.43833
GAMG:  Solving for p, Initial residual = 0.00266945, Final residual = 0.000150333, No Iterations 4
time step continuity errors : sum local = 0.00113596, global = -1.48126e-17, cumulative = -5.4368e-16
Pressure gradient source: uncorrected Ubar = 0.999837, pressure gradient = 5.46116
smoothSolver:  Solving for omega, Initial residual = 0.0101885, Final residual = 0.000704046, No Iterations 6
smoothSolver:  Solving for k, Initial residual = 0.0112579, Final residual = 0.000859596, No Iterations 6
ExecutionTime = 0.115075 s  ClockTime = 0 s

Time = 39s

smoothSolver:  Solving for Ux, Initial residual = 0.0063007, Final residual = 0.000516871, No Iterations 5
smoothSolver:  Solving for Uy, Initial residual = 0.0361131, Final residual = 0.00286698, No Iterations 5
Pressure gradient source: uncorrected Ubar = 0.999808, pressure gradient = 5.57229
GAMG:  Solving for p, Initial residual = 0.00231937, Final residual = 0.000227099, No Iterations 4
time step continuity errors : sum local = 0.00111256, global = -4.52655e-17, cumulative = -5.88945e-16
Pressure gradient source: uncorrected Ubar = 0.999833, pressure gradient = 5.55771
smoothSolver:  Solving for omega, Initial residual = 0.00950096, Final residual = 0.00065567, No Iterations 6
smoothSolver:  Solving for k, Initial residual = 0.0102325, Final residual = 0.000780772, No Iterations 6
ExecutionTime = 0.117718 s  ClockTime = 0 s

Time = 40s

smoothSolver:  Solving for Ux, Initial residual = 0.00610574, Final residual = 0.000501092, No Iterations 5
smoothSolver:  Solving for Uy, Initial residual = 0.0307308, Final residual = 0.00258916, No Iterations 5
Pressure gradient source: uncorrected Ubar = 1.00003, pressure gradient = 5.5418
GAMG:  Solving for p, Initial residual = 0.00214302, Final residual = 0.000136344, No Iterations 4
time step continuity errors : sum local = 0.000742117, global = 3.80826e-17, cumulative = -5.50863e-16
Pressure gradient source: uncorrected Ubar = 0.999866, pressure gradient = 5.63995
smoothSolver:  Solving for omega, Initial residual = 0.00896347, Final residual = 0.000621597, No Iterations 6
smoothSolver:  Solving for k, Initial residual = 0.00936873, Final residual = 0.00071943, No Iterations 6
ExecutionTime = 0.120304 s  ClockTime = 0 s

Time = 41s

smoothSolver:  Solving for Ux, Initial residual = 0.00592927, Final residual = 0.000487312, No Iterations 5
smoothSolver:  Solving for Uy, Initial residual = 0.0279254, Final residual = 0.00252268, No Iterations 5
Pressure gradient source: uncorrected Ubar = 1.00016, pressure gradient = 5.53402
GAMG:  Solving for p, Initial residual = 0.00181196, Final residual = 0.000173483, No Iterations 4
time step continuity errors : sum local = 0.000901284, global = -2.6563e-17, cumulative = -5.77426e-16
Pressure gradient source: uncorrected Ubar = 0.999891, pressure gradient = 5.7101
smoothSolver:  Solving for omega, Initial residual = 0.00847295, Final residual = 0.000599976, No Iterations 6
smoothSolver:  Solving for k, Initial residual = 0.00864553, Final residual = 0.000664738, No Iterations 6
ExecutionTime = 0.122876 s  ClockTime = 0 s

Time = 42s

smoothSolver:  Solving for Ux, Initial residual = 0.00576903, Final residual = 0.000474931, No Iterations 5
smoothSolver:  Solving for Uy, Initial residual = 0.0249305, Final residual = 0.00238614, No Iterations 5
Pressure gradient source: uncorrected Ubar = 1.00019, pressure gradient = 5.58357
GAMG:  Solving for p, Initial residual = 0.00156225, Final residual = 0.000127971, No Iterations 6
time step continuity errors : sum local = 0.000654469, global = 2.04101e-17, cumulative = -5.57016e-16
Pressure gradient source: uncorrected Ubar = 0.999899, pressure gradient = 5.77857
smoothSolver:  Solving for omega, Initial residual = 0.00793636, Final residual = 0.000576445, No Iterations 6
smoothSolver:  Solving for k, Initial residual = 0.00805359, Final residual = 0.000616765, No Iterations 6
ExecutionTime = 0.125523 s  ClockTime = 0 s

Time = 43s

smoothSolver:  Solving for Ux, Initial residual = 0.00562302, Final residual = 0.00046369, No Iterations 5
smoothSolver:  Solving for Uy, Initial residual = 0.0236461, Final residual = 0.00233293, No Iterations 5
Pressure gradient source: uncorrected Ubar = 1.00023, pressure gradient = 5.6138
GAMG:  Solving for p, Initial residual = 0.00135428, Final residual = 0.000101555, No Iterations 8
time step continuity errors : sum local = 0.000480675, global = 2.37982e-17, cumulative = -5.33217e-16
Pressure gradient source: uncorrected Ubar = 0.99991, pressure gradient = 5.84283
smoothSolver:  Solving for omega, Initial residual = 0.00744549, Final residual = 0.000542152, No Iterations 6
smoothSolver:  Solving for k, Initial residual = 0.00765814, Final residual = 0.000575763, No Iterations 6
ExecutionTime = 0.128291 s  ClockTime = 0 s

Time = 44s

smoothSolver:  Solving for Ux, Initial residual = 0.0054893, Final residual = 0.00045427, No Iterations 5
smoothSolver:  Solving for Uy, Initial residual = 0.0228919, Final residual = 0.0015258, No Iterations 6
Pressure gradient source: uncorrected Ubar = 1.00035, pressure gradient = 5.58431
GAMG:  Solving for p, Initial residual = 0.00118681, Final residual = 0.000114862, No Iterations 12
time step continuity errors : sum local = 0.00046329, global = -1.69677e-17, cumulative = -5.50185e-16
Pressure gradient source: uncorrected Ubar = 0.999931, pressure gradient = 5.89485
smoothSolver:  Solving for omega, Initial residual = 0.00704482, Final residual = 0.000514687, No Iterations 6
smoothSolver:  Solving for k, Initial residual = 0.00733045, Final residual = 0.000540311, No Iterations 6
ExecutionTime = 0.131197 s  ClockTime = 0 s

Time = 45s

smoothSolver:  Solving for Ux, Initial residual = 0.00536545, Final residual = 0.000445843, No Iterations 5
smoothSolver:  Solving for Uy, Initial residual = 0.0222045, Final residual = 0.00147745, No Iterations 6
Pressure gradient source: uncorrected Ubar = 1.00041, pressure gradient = 5.57372
GAMG:  Solving for p, Initial residual = 0.00110368, Final residual = 0.000107579, No Iterations 12
time step continuity errors : sum local = 0.000394209, global = -1.63444e-17, cumulative = -5.6653e-16
Pressure gradient source: uncorrected Ubar = 0.999943, pressure gradient = 5.93921
smoothSolver:  Solving for omega, Initial residual = 0.00669811, Final residual = 0.000497839, No Iterations 6
smoothSolver:  Solving for k, Initial residual = 0.00712429, Final residual = 0.000520025, No Iterations 6
ExecutionTime = 0.134114 s  ClockTime = 0 s

Time = 46s

smoothSolver:  Solving for Ux, Initial residual = 0.00525112, Final residual = 0.000437895, No Iterations 5
smoothSolver:  Solving for Uy, Initial residual = 0.0222332, Final residual = 0.00151815, No Iterations 6
Pressure gradient source: uncorrected Ubar = 1.00041, pressure gradient = 5.60513
GAMG:  Solving for p, Initial residual = 0.000983423, Final residual = 8.4316e-05, No Iterations 12
time step continuity errors : sum local = 0.000285873, global = 4.57533e-17, cumulative = -5.20776e-16
Pressure gradient source: uncorrected Ubar = 0.999946, pressure gradient = 5.98329
smoothSolver:  Solving for omega, Initial residual = 0.00635822, Final residual = 0.000476654, No Iterations 6
smoothSolver:  Solving for k, Initial residual = 0.00702252, Final residual = 0.000522792, No Iterations 6
ExecutionTime = 0.137035 s  ClockTime = 0 s

Time = 47s

smoothSolver:  Solving for Ux, Initial residual = 0.00514464, Final residual = 0.000430556, No Iterations 5
smoothSolver:  Solving for Uy, Initial residual = 0.0232017, Final residual = 0.00161533, No Iterations 6
Pressure gradient source: uncorrected Ubar = 1.00044, pressure gradient = 5.60751
GAMG:  Solving for p, Initial residual = 0.000866832, Final residual = 8.20759e-05, No Iterations 9
time step continuity errors : sum local = 0.000230769, global = 3.46741e-17, cumulative = -4.86102e-16
Pressure gradient source: uncorrected Ubar = 0.999954, pressure gradient = 6.02278
smoothSolver:  Solving for omega, Initial residual = 0.00604245, Final residual = 0.000454342, No Iterations 6
smoothSolver:  Solving for k, Initial residual = 0.00695009, Final residual = 0.000520254, No Iterations 6
ExecutionTime = 0.139842 s  ClockTime = 0 s

Time = 48s

smoothSolver:  Solving for Ux, Initial residual = 0.0050445, Final residual = 0.00042404, No Iterations 5
smoothSolver:  Solving for Uy, Initial residual = 0.0238992, Final residual = 0.00168037, No Iterations 6
Pressure gradient source: uncorrected Ubar = 1.00048, pressure gradient = 5.60202
GAMG:  Solving for p, Initial residual = 0.000753982, Final residual = 6.85488e-05, No Iterations 7
time step continuity errors : sum local = 0.000154358, global = 1.80113e-17, cumulative = -4.68091e-16
Pressure gradient source: uncorrected Ubar = 0.999961, pressure gradient = 6.05701
smoothSolver:  Solving for omega, Initial residual = 0.00573828, Final residual = 0.00042956, No Iterations 6
smoothSolver:  Solving for k, Initial residual = 0.00686637, Final residual = 0.000519244, No Iterations 6
ExecutionTime = 0.142692 s  ClockTime = 0 s

Time = 49s

smoothSolver:  Solving for Ux, Initial residual = 0.00495088, Final residual = 0.000418207, No Iterations 5
smoothSolver:  Solving for Uy, Initial residual = 0.0241785, Final residual = 0.00173335, No Iterations 6
Pressure gradient source: uncorrected Ubar = 1.00048, pressure gradient = 5.61444
GAMG:  Solving for p, Initial residual = 0.000686292, Final residual = 6.47705e-05, No Iterations 7
time step continuity errors : sum local = 0.000151003, global = -8.67362e-19, cumulative = -4.68958e-16
Pressure gradient source: uncorrected Ubar = 0.999965, pressure gradient = 6.08958
smoothSolver:  Solving for omega, Initial residual = 0.0055031, Final residual = 0.000422028, No Iterations 6
smoothSolver:  Solving for k, Initial residual = 0.00678877, Final residual = 0.000515418, No Iterations 6
ExecutionTime = 0.145455 s  ClockTime = 0 s

Time = 50s

smoothSolver:  Solving for Ux, Initial residual = 0.00486278, Final residual = 0.000412529, No Iterations 5
smoothSolver:  Solving for Uy, Initial residual = 0.0245853, Final residual = 0.00178111, No Iterations 6
Pressure gradient source: uncorrected Ubar = 1.00049, pressure gradient = 5.62664
GAMG:  Solving for p, Initial residual = 0.000627898, Final residual = 4.6541e-05, No Iterations 9
time step continuity errors : sum local = 0.00014068, global = 4.34901e-17, cumulative = -4.25468e-16
Pressure gradient source: uncorrected Ubar = 0.999968, pressure gradient = 6.12057
smoothSolver:  Solving for omega, Initial residual = 0.00524084, Final residual = 0.000401005, No Iterations 6
smoothSolver:  Solving for k, Initial residual = 0.00671101, Final residual = 0.000513369, No Iterations 6
ExecutionTime = 0.148264 s  ClockTime = 0 s

Time = 51s

smoothSolver:  Solving for Ux, Initial residual = 0.00477988, Final residual = 0.000407011, No Iterations 5
smoothSolver:  Solving for Uy, Initial residual = 0.0249392, Final residual = 0.00181979, No Iterations 6
Pressure gradient source: uncorrected Ubar = 1.00049, pressure gradient = 5.63517
GAMG:  Solving for p, Initial residual = 0.000567443, Final residual = 4.7324e-05, No Iterations 11
time step continuity errors : sum local = 0.000150894, global = -7.0236e-17, cumulative = -4.95704e-16
Pressure gradient source: uncorrected Ubar = 0.999971, pressure gradient = 6.1497
smoothSolver:  Solving for omega, Initial residual = 0.00500549, Final residual = 0.00038263, No Iterations 6
smoothSolver:  Solving for k, Initial residual = 0.00659935, Final residual = 0.000501112, No Iterations 6
ExecutionTime = 0.151142 s  ClockTime = 0 s

Time = 52s

smoothSolver:  Solving for Ux, Initial residual = 0.00470083, Final residual = 0.000401914, No Iterations 5
smoothSolver:  Solving for Uy, Initial residual = 0.0248983, Final residual = 0.00182771, No Iterations 6
Pressure gradient source: uncorrected Ubar = 1.0005, pressure gradient = 5.64204
GAMG:  Solving for p, Initial residual = 0.000543215, Final residual = 4.9713e-05, No Iterations 11
time step continuity errors : sum local = 0.000156749, global = -4.15859e-17, cumulative = -5.3729e-16
Pressure gradient source: uncorrected Ubar = 0.999973, pressure gradient = 6.17697
smoothSolver:  Solving for omega, Initial residual = 0.00480748, Final residual = 0.000369278, No Iterations 6
smoothSolver:  Solving for k, Initial residual = 0.00654521, Final residual = 0.000500589, No Iterations 6
ExecutionTime = 0.15404 s  ClockTime = 0 s

Time = 53s

smoothSolver:  Solving for Ux, Initial residual = 0.00462648, Final residual = 0.000397441, No Iterations 5
smoothSolver:  Solving for Uy, Initial residual = 0.024495, Final residual = 0.00181996, No Iterations 6
Pressure gradient source: uncorrected Ubar = 1.00051, pressure gradient = 5.63459
GAMG:  Solving for p, Initial residual = 0.000485266, Final residual = 4.47157e-05, No Iterations 11
time step continuity errors : sum local = 0.000139069, global = -5.20586e-18, cumulative = -5.42496e-16
Pressure gradient source: uncorrected Ubar = 0.999978, pressure gradient = 6.2002
smoothSolver:  Solving for omega, Initial residual = 0.00458254, Final residual = 0.000349259, No Iterations 6
smoothSolver:  Solving for k, Initial residual = 0.00650972, Final residual = 0.000498866, No Iterations 6
ExecutionTime = 0.156914 s  ClockTime = 0 s

Time = 54s

smoothSolver:  Solving for Ux, Initial residual = 0.00455611, Final residual = 0.000392977, No Iterations 5
smoothSolver:  Solving for Uy, Initial residual = 0.0234671, Final residual = 0.00176057, No Iterations 6
Pressure gradient source: uncorrected Ubar = 1.0005, pressure gradient = 5.64959
GAMG:  Solving for p, Initial residual = 0.000435193, Final residual = 3.85118e-05, No Iterations 8
time step continuity errors : sum local = 0.000121713, global = 5.317e-17, cumulative = -4.89326e-16
Pressure gradient source: uncorrected Ubar = 0.999978, pressure gradient = 6.22369
smoothSolver:  Solving for omega, Initial residual = 0.00439795, Final residual = 0.000334201, No Iterations 6
smoothSolver:  Solving for k, Initial residual = 0.00647402, Final residual = 0.00049907, No Iterations 6
ExecutionTime = 0.159667 s  ClockTime = 0 s

Time = 55s

smoothSolver:  Solving for Ux, Initial residual = 0.00448949, Final residual = 0.000388691, No Iterations 5
smoothSolver:  Solving for Uy, Initial residual = 0.0221798, Final residual = 0.00168707, No Iterations 6
Pressure gradient source: uncorrected Ubar = 1.00051, pressure gradient = 5.64349
GAMG:  Solving for p, Initial residual = 0.000404177, Final residual = 3.68506e-05, No Iterations 6
time step continuity errors : sum local = 0.000112228, global = -1.73811e-17, cumulative = -5.06707e-16
Pressure gradient source: uncorrected Ubar = 0.999982, pressure gradient = 6.24382
smoothSolver:  Solving for omega, Initial residual = 0.00424685, Final residual = 0.000335749, No Iterations 6
smoothSolver:  Solving for k, Initial residual = 0.00642949, Final residual = 0.000496203, No Iterations 6
ExecutionTime = 0.162371 s  ClockTime = 0 s

Time = 56s

smoothSolver:  Solving for Ux, Initial residual = 0.00442451, Final residual = 0.000384328, No Iterations 5
smoothSolver:  Solving for Uy, Initial residual = 0.0218088, Final residual = 0.00166534, No Iterations 6
Pressure gradient source: uncorrected Ubar = 1.00049, pressure gradient = 5.67445
GAMG:  Solving for p, Initial residual = 0.000381609, Final residual = 3.4319e-05, No Iterations 6
time step continuity errors : sum local = 9.96523e-05, global = 6.43744e-18, cumulative = -5.0027e-16
Pressure gradient source: uncorrected Ubar = 0.99998, pressure gradient = 6.26713
smoothSolver:  Solving for omega, Initial residual = 0.00407699, Final residual = 0.000322642, No Iterations 6
smoothSolver:  Solving for k, Initial residual = 0.00637862, Final residual = 0.000494741, No Iterations 6
ExecutionTime = 0.165102 s  ClockTime = 0 s

Time = 57s

smoothSolver:  Solving for Ux, Initial residual = 0.00436141, Final residual = 0.000380457, No Iterations 5
smoothSolver:  Solving for Uy, Initial residual = 0.0214904, Final residual = 0.00164598, No Iterations 6
Pressure gradient source: uncorrected Ubar = 1.00052, pressure gradient = 5.64453
GAMG:  Solving for p, Initial residual = 0.000373984, Final residual = 3.27768e-05, No Iterations 6
time step continuity errors : sum local = 9.02191e-05, global = -2.75116e-18, cumulative = -5.03021e-16
Pressure gradient source: uncorrected Ubar = 0.999987, pressure gradient = 6.28308
smoothSolver:  Solving for omega, Initial residual = 0.0039186, Final residual = 0.000310703, No Iterations 6
smoothSolver:  Solving for k, Initial residual = 0.00632328, Final residual = 0.00049024, No Iterations 6
ExecutionTime = 0.167773 s  ClockTime = 0 s

Time = 58s

smoothSolver:  Solving for Ux, Initial residual = 0.00430137, Final residual = 0.000376697, No Iterations 5
smoothSolver:  Solving for Uy, Initial residual = 0.0213617, Final residual = 0.00163675, No Iterations 6
Pressure gradient source: uncorrected Ubar = 1.00056, pressure gradient = 5.59212
GAMG:  Solving for p, Initial residual = 0.000358464, Final residual = 3.45982e-05, No Iterations 5
time step continuity errors : sum local = 8.72442e-05, global = -1.96512e-19, cumulative = -5.03217e-16
Pressure gradient source: uncorrected Ubar = 0.999995, pressure gradient = 6.28887
smoothSolver:  Solving for omega, Initial residual = 0.00376229, Final residual = 0.000298752, No Iterations 6
smoothSolver:  Solving for k, Initial residual = 0.0062701, Final residual = 0.000488562, No Iterations 6
ExecutionTime = 0.170379 s  ClockTime = 0 s

Time = 59s

smoothSolver:  Solving for Ux, Initial residual = 0.00424509, Final residual = 0.000373024, No Iterations 5
smoothSolver:  Solving for Uy, Initial residual = 0.0206564, Final residual = 0.00158604, No Iterations 6
Pressure gradient source: uncorrected Ubar = 1.00055, pressure gradient = 5.59749
GAMG:  Solving for p, Initial residual = 0.000359837, Final residual = 3.12342e-05, No Iterations 6
time step continuity errors : sum local = 7.37527e-05, global = 2.47198e-17, cumulative = -4.78497e-16
Pressure gradient source: uncorrected Ubar = 0.999995, pressure gradient = 6.29565
smoothSolver:  Solving for omega, Initial residual = 0.00363512, Final residual = 0.000294123, No Iterations 6
smoothSolver:  Solving for k, Initial residual = 0.0062491, Final residual = 0.000488329, No Iterations 6
ExecutionTime = 0.173036 s  ClockTime = 0 s

Time = 60s

smoothSolver:  Solving for Ux, Initial residual = 0.00419113, Final residual = 0.000369328, No Iterations 5
smoothSolver:  Solving for Uy, Initial residual = 0.020184, Final residual = 0.00155718, No Iterations 6
Pressure gradient source: uncorrected Ubar = 1.00054, pressure gradient = 5.59082
GAMG:  Solving for p, Initial residual = 0.000330607, Final residual = 2.69941e-05, No Iterations 6
time step continuity errors : sum local = 5.60999e-05, global = -3.00053e-17, cumulative = -5.08503e-16
Pressure gradient source: uncorrected Ubar = 0.999996, pressure gradient = 6.30126
smoothSolver:  Solving for omega, Initial residual = 0.00348998, Final residual = 0.00028085, No Iterations 6
smoothSolver:  Solving for k, Initial residual = 0.00620615, Final residual = 0.000490171, No Iterations 6
ExecutionTime = 0.175664 s  ClockTime = 0 s

Time = 61s

smoothSolver:  Solving for Ux, Initial residual = 0.00413876, Final residual = 0.000365883, No Iterations 5
smoothSolver:  Solving for Uy, Initial residual = 0.0193827, Final residual = 0.00149596, No Iterations 6
Pressure gradient source: uncorrected Ubar = 1.00055, pressure gradient = 5.56883
GAMG:  Solving for p, Initial residual = 0.000311047, Final residual = 2.85563e-05, No Iterations 5
time step continuity errors : sum local = 5.1289e-05, global = -4.967e-17, cumulative = -5.58173e-16
Pressure gradient source: uncorrected Ubar = 0.999999, pressure gradient = 6.3032
smoothSolver:  Solving for omega, Initial residual = 0.00336792, Final residual = 0.000271674, No Iterations 6
smoothSolver:  Solving for k, Initial residual = 0.00615731, Final residual = 0.000485066, No Iterations 6
ExecutionTime = 0.178244 s  ClockTime = 0 s

Time = 62s

smoothSolver:  Solving for Ux, Initial residual = 0.00408758, Final residual = 0.000362724, No Iterations 5
smoothSolver:  Solving for Uy, Initial residual = 0.0187387, Final residual = 0.00143921, No Iterations 6
Pressure gradient source: uncorrected Ubar = 1.00053, pressure gradient = 5.57621
GAMG:  Solving for p, Initial residual = 0.000299192, Final residual = 2.7714e-05, No Iterations 5
time step continuity errors : sum local = 4.18644e-05, global = 1.42438e-17, cumulative = -5.43929e-16
Pressure gradient source: uncorrected Ubar = 0.999997, pressure gradient = 6.30694
smoothSolver:  Solving for omega, Initial residual = 0.0032648, Final residual = 0.000265761, No Iterations 6
smoothSolver:  Solving for k, Initial residual = 0.00613584, Final residual = 0.000487413, No Iterations 6
ExecutionTime = 0.180834 s  ClockTime = 0 s

Time = 63s

smoothSolver:  Solving for Ux, Initial residual = 0.00403822, Final residual = 0.000359542, No Iterations 5
smoothSolver:  Solving for Uy, Initial residual = 0.0180036, Final residual = 0.00135773, No Iterations 6
Pressure gradient source: uncorrected Ubar = 1.00053, pressure gradient = 5.57265
GAMG:  Solving for p, Initial residual = 0.000292207, Final residual = 2.85785e-05, No Iterations 5
time step continuity errors : sum local = 4.0495e-05, global = -1.29867e-17, cumulative = -5.56916e-16
Pressure gradient source: uncorrected Ubar = 0.999998, pressure gradient = 6.31033
smoothSolver:  Solving for omega, Initial residual = 0.00314948, Final residual = 0.000255629, No Iterations 6
smoothSolver:  Solving for k, Initial residual = 0.00608878, Final residual = 0.000482937, No Iterations 6
ExecutionTime = 0.183469 s  ClockTime = 0 s

Time = 64s

smoothSolver:  Solving for Ux, Initial residual = 0.00399124, Final residual = 0.000356406, No Iterations 5
smoothSolver:  Solving for Uy, Initial residual = 0.0176886, Final residual = 0.00129875, No Iterations 6
Pressure gradient source: uncorrected Ubar = 1.00052, pressure gradient = 5.56574
GAMG:  Solving for p, Initial residual = 0.000288878, Final residual = 2.78796e-05, No Iterations 5
time step continuity errors : sum local = 4.45876e-05, global = -2.24769e-17, cumulative = -5.79393e-16
Pressure gradient source: uncorrected Ubar = 0.999998, pressure gradient = 6.31284
smoothSolver:  Solving for omega, Initial residual = 0.00304224, Final residual = 0.000247601, No Iterations 6
smoothSolver:  Solving for k, Initial residual = 0.0060449, Final residual = 0.000482761, No Iterations 6
ExecutionTime = 0.186071 s  ClockTime = 0 s

Time = 65s

smoothSolver:  Solving for Ux, Initial residual = 0.00394511, Final residual = 0.000353231, No Iterations 5
smoothSolver:  Solving for Uy, Initial residual = 0.0171781, Final residual = 0.00124715, No Iterations 6
Pressure gradient source: uncorrected Ubar = 1.00052, pressure gradient = 5.55488
GAMG:  Solving for p, Initial residual = 0.000273535, Final residual = 2.62754e-05, No Iterations 5
time step continuity errors : sum local = 4.4573e-05, global = 4.88636e-17, cumulative = -5.30529e-16
Pressure gradient source: uncorrected Ubar = 0.999999, pressure gradient = 6.31388
smoothSolver:  Solving for omega, Initial residual = 0.00294242, Final residual = 0.000238723, No Iterations 6
smoothSolver:  Solving for k, Initial residual = 0.00598328, Final residual = 0.000475811, No Iterations 6
ExecutionTime = 0.188659 s  ClockTime = 0 s

Time = 66s

smoothSolver:  Solving for Ux, Initial residual = 0.00390075, Final residual = 0.000350317, No Iterations 5
smoothSolver:  Solving for Uy, Initial residual = 0.0167695, Final residual = 0.001211, No Iterations 6
Pressure gradient source: uncorrected Ubar = 1.00052, pressure gradient = 5.53068
GAMG:  Solving for p, Initial residual = 0.000273691, Final residual = 2.72762e-05, No Iterations 4
time step continuity errors : sum local = 4.51307e-05, global = 8.59064e-18, cumulative = -5.21938e-16
Pressure gradient source: uncorrected Ubar = 1, pressure gradient = 6.31138
smoothSolver:  Solving for omega, Initial residual = 0.00284318, Final residual = 0.000229223, No Iterations 6
smoothSolver:  Solving for k, Initial residual = 0.00597483, Final residual = 0.00047988, No Iterations 6
ExecutionTime = 0.191201 s  ClockTime = 1 s

Time = 67s

smoothSolver:  Solving for Ux, Initial residual = 0.00385706, Final residual = 0.000347548, No Iterations 5
smoothSolver:  Solving for Uy, Initial residual = 0.0166625, Final residual = 0.0012036, No Iterations 6
Pressure gradient source: uncorrected Ubar = 1.00052, pressure gradient = 5.51937
GAMG:  Solving for p, Initial residual = 0.000253362, Final residual = 2.37137e-05, No Iterations 5
time step continuity errors : sum local = 3.65217e-05, global = -7.22892e-17, cumulative = -5.94227e-16
Pressure gradient source: uncorrected Ubar = 1, pressure gradient = 6.30811
smoothSolver:  Solving for omega, Initial residual = 0.00276266, Final residual = 0.000225582, No Iterations 6
smoothSolver:  Solving for k, Initial residual = 0.00594008, Final residual = 0.000476971, No Iterations 6
ExecutionTime = 0.193808 s  ClockTime = 1 s

Time = 68s

smoothSolver:  Solving for Ux, Initial residual = 0.00381515, Final residual = 0.00034479, No Iterations 5
smoothSolver:  Solving for Uy, Initial residual = 0.0164163, Final residual = 0.00118342, No Iterations 6
Pressure gradient source: uncorrected Ubar = 1.00052, pressure gradient = 5.49705
GAMG:  Solving for p, Initial residual = 0.000259874, Final residual = 2.33616e-05, No Iterations 10
time step continuity errors : sum local = 3.7879e-05, global = 4.48385e-17, cumulative = -5.49389e-16
Pressure gradient source: uncorrected Ubar = 1, pressure gradient = 6.30229
smoothSolver:  Solving for omega, Initial residual = 0.00268092, Final residual = 0.000217932, No Iterations 6
smoothSolver:  Solving for k, Initial residual = 0.00590427, Final residual = 0.000475841, No Iterations 6
ExecutionTime = 0.196622 s  ClockTime = 1 s

Time = 69s

smoothSolver:  Solving for Ux, Initial residual = 0.00377579, Final residual = 0.000342146, No Iterations 5
smoothSolver:  Solving for Uy, Initial residual = 0.0164197, Final residual = 0.00118479, No Iterations 6
Pressure gradient source: uncorrected Ubar = 1.00052, pressure gradient = 5.46343
GAMG:  Solving for p, Initial residual = 0.000256646, Final residual = 2.25298e-05, No Iterations 12
time step continuity errors : sum local = 3.63106e-05, global = 2.3473e-17, cumulative = -5.25916e-16
Pressure gradient source: uncorrected Ubar = 1.00001, pressure gradient = 6.29229
smoothSolver:  Solving for omega, Initial residual = 0.00260104, Final residual = 0.000213531, No Iterations 6
smoothSolver:  Solving for k, Initial residual = 0.00586335, Final residual = 0.000471447, No Iterations 6
ExecutionTime = 0.199552 s  ClockTime = 1 s

Time = 70s

smoothSolver:  Solving for Ux, Initial residual = 0.00373649, Final residual = 0.000339459, No Iterations 5
smoothSolver:  Solving for Uy, Initial residual = 0.0163649, Final residual = 0.00118038, No Iterations 6
Pressure gradient source: uncorrected Ubar = 1.00051, pressure gradient = 5.44876
GAMG:  Solving for p, Initial residual = 0.000261423, Final residual = 2.46468e-05, No Iterations 12
time step continuity errors : sum local = 3.83285e-05, global = -7.32514e-18, cumulative = -5.33241e-16
Pressure gradient source: uncorrected Ubar = 1.00001, pressure gradient = 6.28202
smoothSolver:  Solving for omega, Initial residual = 0.00253347, Final residual = 0.00020782, No Iterations 6
smoothSolver:  Solving for k, Initial residual = 0.0058296, Final residual = 0.00047232, No Iterations 6
ExecutionTime = 0.202484 s  ClockTime = 1 s

Time = 71s

smoothSolver:  Solving for Ux, Initial residual = 0.0036978, Final residual = 0.000336943, No Iterations 5
smoothSolver:  Solving for Uy, Initial residual = 0.0160848, Final residual = 0.0011595, No Iterations 6
Pressure gradient source: uncorrected Ubar = 1.00052, pressure gradient = 5.40857
GAMG:  Solving for p, Initial residual = 0.000255154, Final residual = 2.23838e-05, No Iterations 14
time step continuity errors : sum local = 3.47117e-05, global = -4.48385e-17, cumulative = -5.7808e-16
Pressure gradient source: uncorrected Ubar = 1.00001, pressure gradient = 6.26699
smoothSolver:  Solving for omega, Initial residual = 0.00247297, Final residual = 0.000200017, No Iterations 6
smoothSolver:  Solving for k, Initial residual = 0.00577949, Final residual = 0.000466312, No Iterations 6
ExecutionTime = 0.205529 s  ClockTime = 1 s

Time = 72s

smoothSolver:  Solving for Ux, Initial residual = 0.00366082, Final residual = 0.00033463, No Iterations 5
smoothSolver:  Solving for Uy, Initial residual = 0.0159373, Final residual = 0.00115438, No Iterations 6
Pressure gradient source: uncorrected Ubar = 1.00053, pressure gradient = 5.35825
GAMG:  Solving for p, Initial residual = 0.000234803, Final residual = 2.1588e-05, No Iterations 14
time step continuity errors : sum local = 3.30541e-05, global = -3.23567e-17, cumulative = -6.10436e-16
Pressure gradient source: uncorrected Ubar = 1.00001, pressure gradient = 6.24618
smoothSolver:  Solving for omega, Initial residual = 0.00242519, Final residual = 0.000196121, No Iterations 6
smoothSolver:  Solving for k, Initial residual = 0.00576518, Final residual = 0.000467238, No Iterations 6
ExecutionTime = 0.208664 s  ClockTime = 1 s

Time = 73s

smoothSolver:  Solving for Ux, Initial residual = 0.00362532, Final residual = 0.000332353, No Iterations 5
smoothSolver:  Solving for Uy, Initial residual = 0.0158792, Final residual = 0.00115503, No Iterations 6
Pressure gradient source: uncorrected Ubar = 1.00053, pressure gradient = 5.31615
GAMG:  Solving for p, Initial residual = 0.00023818, Final residual = 2.33493e-05, No Iterations 12
time step continuity errors : sum local = 3.41655e-05, global = 3.71339e-18, cumulative = -6.06723e-16
Pressure gradient source: uncorrected Ubar = 1.00001, pressure gradient = 6.22201
smoothSolver:  Solving for omega, Initial residual = 0.0023712, Final residual = 0.000190704, No Iterations 6
smoothSolver:  Solving for k, Initial residual = 0.00573412, Final residual = 0.000464532, No Iterations 6
ExecutionTime = 0.211631 s  ClockTime = 1 s

Time = 74s

smoothSolver:  Solving for Ux, Initial residual = 0.00359224, Final residual = 0.000330186, No Iterations 5
smoothSolver:  Solving for Uy, Initial residual = 0.0159678, Final residual = 0.00117152, No Iterations 6
Pressure gradient source: uncorrected Ubar = 1.00054, pressure gradient = 5.2601
GAMG:  Solving for p, Initial residual = 0.00024445, Final residual = 2.15985e-05, No Iterations 14
time step continuity errors : sum local = 3.05241e-05, global = 2.31071e-17, cumulative = -5.83616e-16
Pressure gradient source: uncorrected Ubar = 1.00002, pressure gradient = 6.19246
smoothSolver:  Solving for omega, Initial residual = 0.00234467, Final residual = 0.000193459, No Iterations 6
smoothSolver:  Solving for k, Initial residual = 0.00570427, Final residual = 0.000464526, No Iterations 6
ExecutionTime = 0.214647 s  ClockTime = 1 s

Time = 75s

smoothSolver:  Solving for Ux, Initial residual = 0.00355964, Final residual = 0.000328015, No Iterations 5
smoothSolver:  Solving for Uy, Initial residual = 0.0160736, Final residual = 0.00120077, No Iterations 6
Pressure gradient source: uncorrected Ubar = 1.00053, pressure gradient = 5.228
GAMG:  Solving for p, Initial residual = 0.00024869, Final residual = 2.36303e-05, No Iterations 14
time step continuity errors : sum local = 3.18012e-05, global = -4.76507e-17, cumulative = -6.31267e-16
Pressure gradient source: uncorrected Ubar = 1.00002, pressure gradient = 6.16266
smoothSolver:  Solving for omega, Initial residual = 0.00229218, Final residual = 0.000183678, No Iterations 6
smoothSolver:  Solving for k, Initial residual = 0.00567082, Final residual = 0.000460578, No Iterations 6
ExecutionTime = 0.217639 s  ClockTime = 1 s

Time = 76s

smoothSolver:  Solving for Ux, Initial residual = 0.00352834, Final residual = 0.000326026, No Iterations 5
smoothSolver:  Solving for Uy, Initial residual = 0.0164341, Final residual = 0.00123434, No Iterations 6
Pressure gradient source: uncorrected Ubar = 1.00054, pressure gradient = 5.15611
GAMG:  Solving for p, Initial residual = 0.000248507, Final residual = 2.29493e-05, No Iterations 14
time step continuity errors : sum local = 3.05268e-05, global = 4.73661e-18, cumulative = -6.2653e-16
Pressure gradient source: uncorrected Ubar = 1.00002, pressure gradient = 6.12545
smoothSolver:  Solving for omega, Initial residual = 0.00225929, Final residual = 0.000182357, No Iterations 6
smoothSolver:  Solving for k, Initial residual = 0.00564568, Final residual = 0.000460996, No Iterations 6
ExecutionTime = 0.220649 s  ClockTime = 1 s

Time = 77s

smoothSolver:  Solving for Ux, Initial residual = 0.003498, Final residual = 0.000324274, No Iterations 5
smoothSolver:  Solving for Uy, Initial residual = 0.0161808, Final residual = 0.00123133, No Iterations 6
Pressure gradient source: uncorrected Ubar = 1.00054, pressure gradient = 5.10976
GAMG:  Solving for p, Initial residual = 0.000231463, Final residual = 1.96851e-05, No Iterations 16
time step continuity errors : sum local = 2.55147e-05, global = -2.88466e-17, cumulative = -6.55376e-16
Pressure gradient source: uncorrected Ubar = 1.00002, pressure gradient = 6.08668
smoothSolver:  Solving for omega, Initial residual = 0.0022291, Final residual = 0.000182509, No Iterations 6
smoothSolver:  Solving for k, Initial residual = 0.00560789, Final residual = 0.000457303, No Iterations 6
ExecutionTime = 0.223758 s  ClockTime = 1 s

Time = 78s

smoothSolver:  Solving for Ux, Initial residual = 0.00346808, Final residual = 0.00032248, No Iterations 5
smoothSolver:  Solving for Uy, Initial residual = 0.0160404, Final residual = 0.00122514, No Iterations 6
Pressure gradient source: uncorrected Ubar = 1.00054, pressure gradient = 5.05491
GAMG:  Solving for p, Initial residual = 0.000237448, Final residual = 2.32294e-05, No Iterations 14
time step continuity errors : sum local = 2.81061e-05, global = 7.1205e-17, cumulative = -5.84172e-16
Pressure gradient source: uncorrected Ubar = 1.00002, pressure gradient = 6.04501
smoothSolver:  Solving for omega, Initial residual = 0.00219116, Final residual = 0.000178721, No Iterations 6
smoothSolver:  Solving for k, Initial residual = 0.00558531, Final residual = 0.000457552, No Iterations 6
ExecutionTime = 0.22675 s  ClockTime = 1 s

Time = 79s

smoothSolver:  Solving for Ux, Initial residual = 0.00344034, Final residual = 0.000320759, No Iterations 5
smoothSolver:  Solving for Uy, Initial residual = 0.0159015, Final residual = 0.00123264, No Iterations 6
Pressure gradient source: uncorrected Ubar = 1.00055, pressure gradient = 4.97766
GAMG:  Solving for p, Initial residual = 0.000234489, Final residual = 2.01507e-05, No Iterations 16
time step continuity errors : sum local = 2.39382e-05, global = -3.26616e-18, cumulative = -5.87438e-16
Pressure gradient source: uncorrected Ubar = 1.00002, pressure gradient = 5.99681
smoothSolver:  Solving for omega, Initial residual = 0.00215395, Final residual = 0.000175197, No Iterations 6
smoothSolver:  Solving for k, Initial residual = 0.0055583, Final residual = 0.000454671, No Iterations 6
ExecutionTime = 0.229834 s  ClockTime = 1 s

Time = 80s

smoothSolver:  Solving for Ux, Initial residual = 0.00341413, Final residual = 0.000319131, No Iterations 5
smoothSolver:  Solving for Uy, Initial residual = 0.0158548, Final residual = 0.0012412, No Iterations 6
Pressure gradient source: uncorrected Ubar = 1.00054, pressure gradient = 4.9205
GAMG:  Solving for p, Initial residual = 0.00023032, Final residual = 2.20819e-05, No Iterations 14
time step continuity errors : sum local = 2.51415e-05, global = -5.63785e-17, cumulative = -6.43816e-16
Pressure gradient source: uncorrected Ubar = 1.00003, pressure gradient = 5.94687
smoothSolver:  Solving for omega, Initial residual = 0.00211452, Final residual = 0.000171696, No Iterations 6
smoothSolver:  Solving for k, Initial residual = 0.00552468, Final residual = 0.000451459, No Iterations 6
ExecutionTime = 0.232864 s  ClockTime = 1 s

Time = 81s

smoothSolver:  Solving for Ux, Initial residual = 0.00338862, Final residual = 0.000317555, No Iterations 5
smoothSolver:  Solving for Uy, Initial residual = 0.0157642, Final residual = 0.00123637, No Iterations 6
Pressure gradient source: uncorrected Ubar = 1.00054, pressure gradient = 4.85222
GAMG:  Solving for p, Initial residual = 0.000221681, Final residual = 2.15645e-05, No Iterations 14
time step continuity errors : sum local = 2.37518e-05, global = 1.29562e-17, cumulative = -6.3086e-16
Pressure gradient source: uncorrected Ubar = 1.00003, pressure gradient = 5.89338
smoothSolver:  Solving for omega, Initial residual = 0.00208434, Final residual = 0.000169239, No Iterations 6
smoothSolver:  Solving for k, Initial residual = 0.00550823, Final residual = 0.000452928, No Iterations 6
ExecutionTime = 0.235854 s  ClockTime = 1 s

Time = 82s

smoothSolver:  Solving for Ux, Initial residual = 0.00336393, Final residual = 0.000316131, No Iterations 5
smoothSolver:  Solving for Uy, Initial residual = 0.0159797, Final residual = 0.00126348, No Iterations 6
Pressure gradient source: uncorrected Ubar = 1.00054, pressure gradient = 4.77876
GAMG:  Solving for p, Initial residual = 0.000224036, Final residual = 2.14454e-05, No Iterations 14
time step continuity errors : sum local = 2.26937e-05, global = 2.83045e-17, cumulative = -6.02556e-16
Pressure gradient source: uncorrected Ubar = 1.00003, pressure gradient = 5.83596
smoothSolver:  Solving for omega, Initial residual = 0.00204999, Final residual = 0.000166932, No Iterations 6
smoothSolver:  Solving for k, Initial residual = 0.0054787, Final residual = 0.000451005, No Iterations 6
ExecutionTime = 0.238863 s  ClockTime = 1 s

Time = 83s

smoothSolver:  Solving for Ux, Initial residual = 0.00334001, Final residual = 0.000314844, No Iterations 5
smoothSolver:  Solving for Uy, Initial residual = 0.0159521, Final residual = 0.00126749, No Iterations 6
Pressure gradient source: uncorrected Ubar = 1.00053, pressure gradient = 4.72116
GAMG:  Solving for p, Initial residual = 0.000226153, Final residual = 2.14468e-05, No Iterations 14
time step continuity errors : sum local = 2.17636e-05, global = 1.89397e-17, cumulative = -5.83616e-16
Pressure gradient source: uncorrected Ubar = 1.00003, pressure gradient = 5.77821
smoothSolver:  Solving for omega, Initial residual = 0.00201842, Final residual = 0.000164254, No Iterations 6
smoothSolver:  Solving for k, Initial residual = 0.00544934, Final residual = 0.000447935, No Iterations 6
ExecutionTime = 0.241855 s  ClockTime = 1 s

Time = 84s

smoothSolver:  Solving for Ux, Initial residual = 0.00331694, Final residual = 0.000313603, No Iterations 5
smoothSolver:  Solving for Uy, Initial residual = 0.0163605, Final residual = 0.00129406, No Iterations 6
Pressure gradient source: uncorrected Ubar = 1.00054, pressure gradient = 4.63877
GAMG:  Solving for p, Initial residual = 0.000217352, Final residual = 2.08811e-05, No Iterations 14
time step continuity errors : sum local = 2.02985e-05, global = -5.2516e-18, cumulative = -5.88867e-16
Pressure gradient source: uncorrected Ubar = 1.00003, pressure gradient = 5.71558
smoothSolver:  Solving for omega, Initial residual = 0.00199024, Final residual = 0.000161726, No Iterations 6
smoothSolver:  Solving for k, Initial residual = 0.00542495, Final residual = 0.000447209, No Iterations 6
ExecutionTime = 0.244838 s  ClockTime = 1 s

Time = 85s

smoothSolver:  Solving for Ux, Initial residual = 0.00329527, Final residual = 0.000312419, No Iterations 5
smoothSolver:  Solving for Uy, Initial residual = 0.0160448, Final residual = 0.00126843, No Iterations 6
Pressure gradient source: uncorrected Ubar = 1.00054, pressure gradient = 4.55571
GAMG:  Solving for p, Initial residual = 0.000231854, Final residual = 2.02402e-05, No Iterations 14
time step continuity errors : sum local = 1.90405e-05, global = -3.37526e-17, cumulative = -6.2262e-16
Pressure gradient source: uncorrected Ubar = 1.00003, pressure gradient = 5.64881
smoothSolver:  Solving for omega, Initial residual = 0.00196286, Final residual = 0.000159223, No Iterations 6
smoothSolver:  Solving for k, Initial residual = 0.00540288, Final residual = 0.000445565, No Iterations 6
ExecutionTime = 0.24782 s  ClockTime = 1 s

Time = 86s

smoothSolver:  Solving for Ux, Initial residual = 0.00327525, Final residual = 0.000311323, No Iterations 5
smoothSolver:  Solving for Uy, Initial residual = 0.0162565, Final residual = 0.00129863, No Iterations 6
Pressure gradient source: uncorrected Ubar = 1.00053, pressure gradient = 4.48103
GAMG:  Solving for p, Initial residual = 0.000229704, Final residual = 2.09366e-05, No Iterations 14
time step continuity errors : sum local = 1.89234e-05, global = -3.71339e-17, cumulative = -6.59754e-16
Pressure gradient source: uncorrected Ubar = 1.00003, pressure gradient = 5.58018
smoothSolver:  Solving for omega, Initial residual = 0.00193846, Final residual = 0.00015778, No Iterations 6
smoothSolver:  Solving for k, Initial residual = 0.00538577, Final residual = 0.000446572, No Iterations 6
ExecutionTime = 0.250821 s  ClockTime = 1 s

Time = 87s

smoothSolver:  Solving for Ux, Initial residual = 0.0032552, Final residual = 0.000310207, No Iterations 5
smoothSolver:  Solving for Uy, Initial residual = 0.0162446, Final residual = 0.00130435, No Iterations 6
Pressure gradient source: uncorrected Ubar = 1.00053, pressure gradient = 4.41568
GAMG:  Solving for p, Initial residual = 0.00021576, Final residual = 1.93479e-05, No Iterations 14
time step continuity errors : sum local = 1.66674e-05, global = 1.56049e-17, cumulative = -6.44149e-16
Pressure gradient source: uncorrected Ubar = 1.00003, pressure gradient = 5.51173
smoothSolver:  Solving for omega, Initial residual = 0.00191918, Final residual = 0.000156342, No Iterations 6
smoothSolver:  Solving for k, Initial residual = 0.00535661, Final residual = 0.00044199, No Iterations 6
ExecutionTime = 0.2538 s  ClockTime = 1 s

Time = 88s

smoothSolver:  Solving for Ux, Initial residual = 0.00323607, Final residual = 0.000309165, No Iterations 5
smoothSolver:  Solving for Uy, Initial residual = 0.0162836, Final residual = 0.00130587, No Iterations 6
Pressure gradient source: uncorrected Ubar = 1.00053, pressure gradient = 4.31937
GAMG:  Solving for p, Initial residual = 0.000199968, Final residual = 1.71716e-05, No Iterations 14
time step continuity errors : sum local = 1.44765e-05, global = -1.90608e-17, cumulative = -6.6321e-16
Pressure gradient source: uncorrected Ubar = 1.00003, pressure gradient = 5.43757
smoothSolver:  Solving for omega, Initial residual = 0.00189877, Final residual = 0.000155128, No Iterations 6
smoothSolver:  Solving for k, Initial residual = 0.00534123, Final residual = 0.000444401, No Iterations 6
ExecutionTime = 0.256786 s  ClockTime = 1 s

Time = 89s

smoothSolver:  Solving for Ux, Initial residual = 0.0032172, Final residual = 0.000308246, No Iterations 5
smoothSolver:  Solving for Uy, Initial residual = 0.015923, Final residual = 0.0012855, No Iterations 6
Pressure gradient source: uncorrected Ubar = 1.00052, pressure gradient = 4.24989
GAMG:  Solving for p, Initial residual = 0.000211846, Final residual = 1.87661e-05, No Iterations 14
[...]
smoothSolver:  Solving for k, Initial residual = 2.30662e-05, Final residual = 9.39376e-06, No Iterations 2
ExecutionTime = 9.6291 s  ClockTime = 10 s

Time = 3744s

smoothSolver:  Solving for Ux, Initial residual = 9.28209e-06, Final residual = 9.28209e-06, No Iterations 0
smoothSolver:  Solving for Uy, Initial residual = 0.000130874, Final residual = 8.00785e-06, No Iterations 5
Pressure gradient source: uncorrected Ubar = 1, pressure gradient = 0.0039252
GAMG:  Solving for p, Initial residual = 8.00888e-05, Final residual = 2.63622e-06, No Iterations 4
time step continuity errors : sum local = 3.73929e-11, global = -4.94578e-18, cumulative = -1.36376e-15
Pressure gradient source: uncorrected Ubar = 1, pressure gradient = 0.00392514
smoothSolver:  Solving for omega, Initial residual = 5.50504e-06, Final residual = 5.50504e-06, No Iterations 0
smoothSolver:  Solving for k, Initial residual = 2.28967e-05, Final residual = 9.31017e-06, No Iterations 2
ExecutionTime = 9.63155 s  ClockTime = 10 s

Time = 3745s

smoothSolver:  Solving for Ux, Initial residual = 9.31166e-06, Final residual = 9.31166e-06, No Iterations 0
smoothSolver:  Solving for Uy, Initial residual = 0.000122164, Final residual = 7.90801e-06, No Iterations 5
Pressure gradient source: uncorrected Ubar = 1, pressure gradient = 0.00392514
GAMG:  Solving for p, Initial residual = 6.15773e-05, Final residual = 4.4989e-06, No Iterations 4
time step continuity errors : sum local = 6.56073e-11, global = -1.45199e-18, cumulative = -1.36521e-15
Pressure gradient source: uncorrected Ubar = 1, pressure gradient = 0.00392508
smoothSolver:  Solving for omega, Initial residual = 5.50506e-06, Final residual = 5.50506e-06, No Iterations 0
smoothSolver:  Solving for k, Initial residual = 2.2869e-05, Final residual = 9.31758e-06, No Iterations 2
ExecutionTime = 9.63395 s  ClockTime = 10 s

Time = 3746s

smoothSolver:  Solving for Ux, Initial residual = 9.34104e-06, Final residual = 9.34104e-06, No Iterations 0
smoothSolver:  Solving for Uy, Initial residual = 0.000119012, Final residual = 8.06973e-06, No Iterations 5
Pressure gradient source: uncorrected Ubar = 1, pressure gradient = 0.00392508
GAMG:  Solving for p, Initial residual = 7.2115e-05, Final residual = 5.5593e-06, No Iterations 4
time step continuity errors : sum local = 8.11025e-11, global = 2.04734e-18, cumulative = -1.36316e-15
Pressure gradient source: uncorrected Ubar = 1, pressure gradient = 0.00392502
smoothSolver:  Solving for omega, Initial residual = 5.50508e-06, Final residual = 5.50508e-06, No Iterations 0
smoothSolver:  Solving for k, Initial residual = 2.26572e-05, Final residual = 9.20392e-06, No Iterations 2
ExecutionTime = 9.63635 s  ClockTime = 10 s

Time = 3747s

smoothSolver:  Solving for Ux, Initial residual = 9.37029e-06, Final residual = 9.37029e-06, No Iterations 0
smoothSolver:  Solving for Uy, Initial residual = 0.000131736, Final residual = 1.30446e-05, No Iterations 4
Pressure gradient source: uncorrected Ubar = 1, pressure gradient = 0.00392502
GAMG:  Solving for p, Initial residual = 7.82297e-05, Final residual = 3.82383e-06, No Iterations 4
time step continuity errors : sum local = 5.68265e-11, global = -5.34582e-18, cumulative = -1.36851e-15
Pressure gradient source: uncorrected Ubar = 1, pressure gradient = 0.00392497
smoothSolver:  Solving for omega, Initial residual = 5.5051e-06, Final residual = 5.5051e-06, No Iterations 0
smoothSolver:  Solving for k, Initial residual = 2.27008e-05, Final residual = 9.25755e-06, No Iterations 2
ExecutionTime = 9.63872 s  ClockTime = 10 s

Time = 3748s

smoothSolver:  Solving for Ux, Initial residual = 9.39936e-06, Final residual = 9.39936e-06, No Iterations 0
smoothSolver:  Solving for Uy, Initial residual = 0.000127375, Final residual = 8.25302e-06, No Iterations 5
Pressure gradient source: uncorrected Ubar = 1, pressure gradient = 0.00392497
GAMG:  Solving for p, Initial residual = 7.88086e-05, Final residual = 4.91762e-06, No Iterations 4
time step continuity errors : sum local = 7.15999e-11, global = -1.5241e-18, cumulative = -1.37003e-15
Pressure gradient source: uncorrected Ubar = 1, pressure gradient = 0.00392491
smoothSolver:  Solving for omega, Initial residual = 5.50512e-06, Final residual = 5.50512e-06, No Iterations 0
smoothSolver:  Solving for k, Initial residual = 2.25303e-05, Final residual = 9.18044e-06, No Iterations 2
ExecutionTime = 9.64114 s  ClockTime = 10 s

Time = 3749s

smoothSolver:  Solving for Ux, Initial residual = 9.42828e-06, Final residual = 9.42828e-06, No Iterations 0
smoothSolver:  Solving for Uy, Initial residual = 0.000131537, Final residual = 7.99365e-06, No Iterations 5
Pressure gradient source: uncorrected Ubar = 1, pressure gradient = 0.00392491
GAMG:  Solving for p, Initial residual = 6.56888e-05, Final residual = 3.61096e-06, No Iterations 4
time step continuity errors : sum local = 5.3301e-11, global = -4.23476e-18, cumulative = -1.37427e-15
Pressure gradient source: uncorrected Ubar = 1, pressure gradient = 0.00392485
smoothSolver:  Solving for omega, Initial residual = 5.50515e-06, Final residual = 5.50515e-06, No Iterations 0
smoothSolver:  Solving for k, Initial residual = 2.23806e-05, Final residual = 9.08947e-06, No Iterations 2
ExecutionTime = 9.64356 s  ClockTime = 10 s

Time = 3750s

smoothSolver:  Solving for Ux, Initial residual = 9.45703e-06, Final residual = 9.45703e-06, No Iterations 0
smoothSolver:  Solving for Uy, Initial residual = 0.000128725, Final residual = 8.33208e-06, No Iterations 5
Pressure gradient source: uncorrected Ubar = 1, pressure gradient = 0.00392485
GAMG:  Solving for p, Initial residual = 7.36929e-05, Final residual = 4.47073e-06, No Iterations 4
time step continuity errors : sum local = 6.42024e-11, global = 1.01213e-18, cumulative = -1.37325e-15
Pressure gradient source: uncorrected Ubar = 1, pressure gradient = 0.00392479
smoothSolver:  Solving for omega, Initial residual = 5.50517e-06, Final residual = 5.50517e-06, No Iterations 0
smoothSolver:  Solving for k, Initial residual = 2.2319e-05, Final residual = 9.09507e-06, No Iterations 2
ExecutionTime = 9.64595 s  ClockTime = 10 s

Time = 3751s

smoothSolver:  Solving for Ux, Initial residual = 9.48563e-06, Final residual = 9.48563e-06, No Iterations 0
smoothSolver:  Solving for Uy, Initial residual = 0.000133455, Final residual = 8.03118e-06, No Iterations 5
Pressure gradient source: uncorrected Ubar = 1, pressure gradient = 0.00392479
GAMG:  Solving for p, Initial residual = 7.07978e-05, Final residual = 4.05273e-06, No Iterations 4
time step continuity errors : sum local = 5.70441e-11, global = -2.64068e-18, cumulative = -1.37589e-15
Pressure gradient source: uncorrected Ubar = 1, pressure gradient = 0.00392474
smoothSolver:  Solving for omega, Initial residual = 5.50519e-06, Final residual = 5.50519e-06, No Iterations 0
smoothSolver:  Solving for k, Initial residual = 2.2138e-05, Final residual = 8.98084e-06, No Iterations 2
ExecutionTime = 9.64835 s  ClockTime = 10 s

Time = 3752s

smoothSolver:  Solving for Ux, Initial residual = 9.51406e-06, Final residual = 9.51406e-06, No Iterations 0
smoothSolver:  Solving for Uy, Initial residual = 0.000132223, Final residual = 8.29001e-06, No Iterations 5
Pressure gradient source: uncorrected Ubar = 1, pressure gradient = 0.00392474
GAMG:  Solving for p, Initial residual = 7.72416e-05, Final residual = 6.47363e-06, No Iterations 4
time step continuity errors : sum local = 8.80723e-11, global = 2.47488e-18, cumulative = -1.37342e-15
Pressure gradient source: uncorrected Ubar = 1, pressure gradient = 0.00392468
smoothSolver:  Solving for omega, Initial residual = 5.50522e-06, Final residual = 5.50522e-06, No Iterations 0
smoothSolver:  Solving for k, Initial residual = 2.22307e-05, Final residual = 9.09021e-06, No Iterations 2
ExecutionTime = 9.65073 s  ClockTime = 10 s

Time = 3753s

smoothSolver:  Solving for Ux, Initial residual = 9.54234e-06, Final residual = 9.54234e-06, No Iterations 0
smoothSolver:  Solving for Uy, Initial residual = 0.000139498, Final residual = 1.35274e-05, No Iterations 4
Pressure gradient source: uncorrected Ubar = 1, pressure gradient = 0.00392468
GAMG:  Solving for p, Initial residual = 8.25624e-05, Final residual = 4.61066e-06, No Iterations 4
time step continuity errors : sum local = 6.23734e-11, global = 6.06877e-18, cumulative = -1.36735e-15
Pressure gradient source: uncorrected Ubar = 1, pressure gradient = 0.00392462
smoothSolver:  Solving for omega, Initial residual = 5.50524e-06, Final residual = 5.50524e-06, No Iterations 0
smoothSolver:  Solving for k, Initial residual = 2.20209e-05, Final residual = 8.96245e-06, No Iterations 2
ExecutionTime = 9.65313 s  ClockTime = 10 s

Time = 3754s

smoothSolver:  Solving for Ux, Initial residual = 9.57044e-06, Final residual = 9.57044e-06, No Iterations 0
smoothSolver:  Solving for Uy, Initial residual = 0.000123471, Final residual = 8.02444e-06, No Iterations 5
Pressure gradient source: uncorrected Ubar = 1, pressure gradient = 0.00392462
GAMG:  Solving for p, Initial residual = 7.3273e-05, Final residual = 3.41068e-06, No Iterations 4
time step continuity errors : sum local = 4.78479e-11, global = 2.27075e-19, cumulative = -1.36712e-15
Pressure gradient source: uncorrected Ubar = 1, pressure gradient = 0.00392457
smoothSolver:  Solving for omega, Initial residual = 5.50527e-06, Final residual = 5.50527e-06, No Iterations 0
smoothSolver:  Solving for k, Initial residual = 2.18925e-05, Final residual = 8.9056e-06, No Iterations 2
ExecutionTime = 9.65553 s  ClockTime = 10 s

Time = 3755s

smoothSolver:  Solving for Ux, Initial residual = 9.59853e-06, Final residual = 9.59853e-06, No Iterations 0
smoothSolver:  Solving for Uy, Initial residual = 0.000119315, Final residual = 7.70794e-06, No Iterations 5
Pressure gradient source: uncorrected Ubar = 1, pressure gradient = 0.00392457
GAMG:  Solving for p, Initial residual = 5.86287e-05, Final residual = 3.01585e-06, No Iterations 4
time step continuity errors : sum local = 4.43226e-11, global = -4.55591e-18, cumulative = -1.37168e-15
Pressure gradient source: uncorrected Ubar = 1, pressure gradient = 0.00392451
smoothSolver:  Solving for omega, Initial residual = 5.5053e-06, Final residual = 5.5053e-06, No Iterations 0
smoothSolver:  Solving for k, Initial residual = 2.1811e-05, Final residual = 8.87546e-06, No Iterations 2
ExecutionTime = 9.65791 s  ClockTime = 10 s

Time = 3756s

smoothSolver:  Solving for Ux, Initial residual = 9.62667e-06, Final residual = 9.62667e-06, No Iterations 0
smoothSolver:  Solving for Uy, Initial residual = 0.000114464, Final residual = 7.81158e-06, No Iterations 5
Pressure gradient source: uncorrected Ubar = 1, pressure gradient = 0.00392451
GAMG:  Solving for p, Initial residual = 6.01584e-05, Final residual = 4.56864e-06, No Iterations 4
time step continuity errors : sum local = 6.73162e-11, global = -7.69476e-18, cumulative = -1.37937e-15
Pressure gradient source: uncorrected Ubar = 1, pressure gradient = 0.00392445
smoothSolver:  Solving for omega, Initial residual = 5.50532e-06, Final residual = 5.50532e-06, No Iterations 0
smoothSolver:  Solving for k, Initial residual = 2.16598e-05, Final residual = 8.80566e-06, No Iterations 2
ExecutionTime = 9.6603 s  ClockTime = 10 s

Time = 3757s

smoothSolver:  Solving for Ux, Initial residual = 9.65468e-06, Final residual = 9.65468e-06, No Iterations 0
smoothSolver:  Solving for Uy, Initial residual = 0.000123017, Final residual = 1.20222e-05, No Iterations 4
Pressure gradient source: uncorrected Ubar = 1, pressure gradient = 0.00392445
GAMG:  Solving for p, Initial residual = 6.89528e-05, Final residual = 4.60398e-06, No Iterations 4
time step continuity errors : sum local = 6.84837e-11, global = 5.1311e-18, cumulative = -1.37424e-15
Pressure gradient source: uncorrected Ubar = 1, pressure gradient = 0.0039244
smoothSolver:  Solving for omega, Initial residual = 5.50535e-06, Final residual = 5.50535e-06, No Iterations 0
smoothSolver:  Solving for k, Initial residual = 2.16698e-05, Final residual = 8.83202e-06, No Iterations 2
ExecutionTime = 9.6627 s  ClockTime = 10 s

Time = 3758s

smoothSolver:  Solving for Ux, Initial residual = 9.68256e-06, Final residual = 9.68256e-06, No Iterations 0
smoothSolver:  Solving for Uy, Initial residual = 0.000121901, Final residual = 7.70993e-06, No Iterations 5
Pressure gradient source: uncorrected Ubar = 1, pressure gradient = 0.0039244
GAMG:  Solving for p, Initial residual = 6.4775e-05, Final residual = 4.83755e-06, No Iterations 4
time step continuity errors : sum local = 7.40431e-11, global = -1.49296e-18, cumulative = -1.37574e-15
Pressure gradient source: uncorrected Ubar = 1, pressure gradient = 0.00392434
smoothSolver:  Solving for omega, Initial residual = 5.50538e-06, Final residual = 5.50538e-06, No Iterations 0
smoothSolver:  Solving for k, Initial residual = 2.15026e-05, Final residual = 8.75634e-06, No Iterations 2
ExecutionTime = 9.6651 s  ClockTime = 10 s

Time = 3759s

smoothSolver:  Solving for Ux, Initial residual = 9.71024e-06, Final residual = 9.71024e-06, No Iterations 0
smoothSolver:  Solving for Uy, Initial residual = 0.000121126, Final residual = 7.38587e-06, No Iterations 5
Pressure gradient source: uncorrected Ubar = 1, pressure gradient = 0.00392434
GAMG:  Solving for p, Initial residual = 5.68503e-05, Final residual = 4.34313e-06, No Iterations 4
time step continuity errors : sum local = 6.78725e-11, global = 6.34052e-18, cumulative = -1.3694e-15
Pressure gradient source: uncorrected Ubar = 1, pressure gradient = 0.00392429
smoothSolver:  Solving for omega, Initial residual = 5.50541e-06, Final residual = 5.50541e-06, No Iterations 0
smoothSolver:  Solving for k, Initial residual = 2.13448e-05, Final residual = 8.66004e-06, No Iterations 2
ExecutionTime = 9.6675 s  ClockTime = 10 s

Time = 3760s

smoothSolver:  Solving for Ux, Initial residual = 9.73779e-06, Final residual = 9.73779e-06, No Iterations 0
smoothSolver:  Solving for Uy, Initial residual = 0.000115716, Final residual = 7.61327e-06, No Iterations 5
Pressure gradient source: uncorrected Ubar = 1, pressure gradient = 0.00392429
GAMG:  Solving for p, Initial residual = 5.99126e-05, Final residual = 5.61762e-06, No Iterations 4
time step continuity errors : sum local = 8.71128e-11, global = 3.2617e-18, cumulative = -1.36613e-15
Pressure gradient source: uncorrected Ubar = 1, pressure gradient = 0.00392423
smoothSolver:  Solving for omega, Initial residual = 5.50544e-06, Final residual = 5.50544e-06, No Iterations 0
smoothSolver:  Solving for k, Initial residual = 2.12802e-05, Final residual = 8.6618e-06, No Iterations 2
ExecutionTime = 9.66988 s  ClockTime = 10 s

Time = 3761s

smoothSolver:  Solving for Ux, Initial residual = 9.76516e-06, Final residual = 9.76516e-06, No Iterations 0
smoothSolver:  Solving for Uy, Initial residual = 0.000118625, Final residual = 7.01466e-06, No Iterations 5
Pressure gradient source: uncorrected Ubar = 1, pressure gradient = 0.00392423
GAMG:  Solving for p, Initial residual = 5.98537e-05, Final residual = 2.39409e-06, No Iterations 4
time step continuity errors : sum local = 4.62308e-11, global = -3.73233e-18, cumulative = -1.36987e-15
Pressure gradient source: uncorrected Ubar = 1, pressure gradient = 0.00392418
smoothSolver:  Solving for omega, Initial residual = 5.50547e-06, Final residual = 5.50547e-06, No Iterations 0
smoothSolver:  Solving for k, Initial residual = 2.11203e-05, Final residual = 8.56214e-06, No Iterations 2
ExecutionTime = 9.67227 s  ClockTime = 10 s

Time = 3762s

smoothSolver:  Solving for Ux, Initial residual = 9.79238e-06, Final residual = 9.79238e-06, No Iterations 0
smoothSolver:  Solving for Uy, Initial residual = 0.00011699, Final residual = 7.23117e-06, No Iterations 5
Pressure gradient source: uncorrected Ubar = 1, pressure gradient = 0.00392418
GAMG:  Solving for p, Initial residual = 6.35351e-05, Final residual = 6.3339e-06, No Iterations 4
time step continuity errors : sum local = 1.0017e-10, global = -3.27822e-18, cumulative = -1.37314e-15
Pressure gradient source: uncorrected Ubar = 1, pressure gradient = 0.00392412
smoothSolver:  Solving for omega, Initial residual = 5.5055e-06, Final residual = 5.5055e-06, No Iterations 0
smoothSolver:  Solving for k, Initial residual = 2.11946e-05, Final residual = 8.65942e-06, No Iterations 2
ExecutionTime = 9.67473 s  ClockTime = 10 s

Time = 3763s

smoothSolver:  Solving for Ux, Initial residual = 9.81942e-06, Final residual = 9.81942e-06, No Iterations 0
smoothSolver:  Solving for Uy, Initial residual = 0.000130018, Final residual = 1.18295e-05, No Iterations 4
Pressure gradient source: uncorrected Ubar = 1, pressure gradient = 0.00392412
GAMG:  Solving for p, Initial residual = 7.80937e-05, Final residual = 4.66609e-06, No Iterations 4
time step continuity errors : sum local = 8.00145e-11, global = 2.62668e-18, cumulative = -1.37052e-15
Pressure gradient source: uncorrected Ubar = 1, pressure gradient = 0.00392407
smoothSolver:  Solving for omega, Initial residual = 5.50553e-06, Final residual = 5.50553e-06, No Iterations 0
smoothSolver:  Solving for k, Initial residual = 2.09929e-05, Final residual = 8.53771e-06, No Iterations 2
ExecutionTime = 9.67711 s  ClockTime = 10 s

Time = 3764s

smoothSolver:  Solving for Ux, Initial residual = 9.84631e-06, Final residual = 9.84631e-06, No Iterations 0
smoothSolver:  Solving for Uy, Initial residual = 0.00011147, Final residual = 6.74855e-06, No Iterations 5
Pressure gradient source: uncorrected Ubar = 1, pressure gradient = 0.00392407
GAMG:  Solving for p, Initial residual = 6.58498e-05, Final residual = 5.67805e-06, No Iterations 3
time step continuity errors : sum local = 9.45604e-11, global = -2.8247e-18, cumulative = -1.37334e-15
Pressure gradient source: uncorrected Ubar = 1, pressure gradient = 0.00392402
smoothSolver:  Solving for omega, Initial residual = 5.50556e-06, Final residual = 5.50556e-06, No Iterations 0
smoothSolver:  Solving for k, Initial residual = 2.08613e-05, Final residual = 8.47832e-06, No Iterations 2
ExecutionTime = 9.67947 s  ClockTime = 10 s

Time = 3765s

smoothSolver:  Solving for Ux, Initial residual = 9.87302e-06, Final residual = 9.87302e-06, No Iterations 0
smoothSolver:  Solving for Uy, Initial residual = 0.000105756, Final residual = 6.43784e-06, No Iterations 5
Pressure gradient source: uncorrected Ubar = 1, pressure gradient = 0.00392402
GAMG:  Solving for p, Initial residual = 5.30002e-05, Final residual = 4.45413e-06, No Iterations 5
time step continuity errors : sum local = 7.90259e-11, global = 1.57893e-18, cumulative = -1.37176e-15
Pressure gradient source: uncorrected Ubar = 1, pressure gradient = 0.00392396
smoothSolver:  Solving for omega, Initial residual = 5.50559e-06, Final residual = 5.50559e-06, No Iterations 0
smoothSolver:  Solving for k, Initial residual = 2.07829e-05, Final residual = 8.44965e-06, No Iterations 2
ExecutionTime = 9.68191 s  ClockTime = 10 s

Time = 3766s

smoothSolver:  Solving for Ux, Initial residual = 9.89959e-06, Final residual = 9.89959e-06, No Iterations 0
smoothSolver:  Solving for Uy, Initial residual = 9.4479e-05, Final residual = 6.10981e-06, No Iterations 5
Pressure gradient source: uncorrected Ubar = 1, pressure gradient = 0.00392396
GAMG:  Solving for p, Initial residual = 4.89324e-05, Final residual = 4.34127e-06, No Iterations 5
time step continuity errors : sum local = 7.77796e-11, global = -2.62699e-19, cumulative = -1.37203e-15
Pressure gradient source: uncorrected Ubar = 1, pressure gradient = 0.00392391
smoothSolver:  Solving for omega, Initial residual = 5.50563e-06, Final residual = 5.50563e-06, No Iterations 0
smoothSolver:  Solving for k, Initial residual = 2.06349e-05, Final residual = 8.3817e-06, No Iterations 2
ExecutionTime = 9.68441 s  ClockTime = 10 s


SIMPLE solution converged in 3766 iterations

End

