/*---------------------------------------------------------------------------*\
  =========                 |
  \\      /  F ield         | OpenFOAM: The Open Source CFD Toolbox
   \\    /   O peration     | Website:  https://openfoam.org
    \\  /    A nd           | Version:  10
     \\/     M anipulation  |
\*---------------------------------------------------------------------------*/
Build  : 10-e450dce21ea5
Exec   : blockMesh
Date   : Jan 16 2023
Time   : 11:44:04
Host   : "w530-R9YK46P"
PID    : 14450
I/O    : uncollated
Case   : /home/jdmezazeron/gitDanielMezaZ/turbulenceVisualized/Data/SimulationFiles/E25_Re16063
nProcs : 1
sigFpe : Enabling floating point exception trapping (FOAM_SIGFPE).
fileModificationChecking : Monitoring run-time modified files using timeStampMaster (fileModificationSkew 10)
allowSystemOperations : Allowing user-supplied system call operations

// * * * * * * * * * * * * * * * * * * * * * * * * * * * * * * * * * * * * * //
Create time

Reading "blockMeshDict"

Creating block mesh from
    "system/blockMeshDict"
Creating block edges
No non-planar block faces defined
Creating topology blocks
Creating topology patches

Creating block mesh topology

Check topology

	Basic statistics
		Number of internal faces : 0
		Number of boundary faces : 6
		Number of defined boundary faces : 6
		Number of undefined boundary faces : 0
	Checking patch -> block consistency

Creating block offsets
Creating merge list .

Creating polyMesh from blockMesh
Creating patches
Creating cells
Creating points with scale 1
    Block 0 cell size :
        i : 0.5
        j : 0.00921276 .. 0.036851
        k : 2

Detected cyclic patches; ordering boundary faces

Writing polyMesh
----------------
Mesh Information
----------------
  boundingBox: (-1 0 -1) (1 1 1)
  nPoints: 510
  nCells: 200
  nFaces: 854
  nInternalFaces: 346
----------------
Patches
----------------
  patch 0 (start: 346 size: 50) name: inlet
  patch 1 (start: 396 size: 50) name: outlet
  patch 2 (start: 446 size: 4) name: fixedWalls-bottom
  patch 3 (start: 450 size: 4) name: fixedWalls-top
  patch 4 (start: 454 size: 400) name: frontAndBack

End

/*---------------------------------------------------------------------------*\
  =========                 |
  \\      /  F ield         | OpenFOAM: The Open Source CFD Toolbox
   \\    /   O peration     | Website:  https://openfoam.org
    \\  /    A nd           | Version:  10
     \\/     M anipulation  |
\*---------------------------------------------------------------------------*/
Build  : 10-e450dce21ea5
Exec   : simpleFoam
Date   : Jan 16 2023
Time   : 11:44:04
Host   : "w530-R9YK46P"
PID    : 14451
I/O    : uncollated
Case   : /home/jdmezazeron/gitDanielMezaZ/turbulenceVisualized/Data/SimulationFiles/E25_Re16063
nProcs : 1
sigFpe : Enabling floating point exception trapping (FOAM_SIGFPE).
fileModificationChecking : Monitoring run-time modified files using timeStampMaster (fileModificationSkew 10)
allowSystemOperations : Allowing user-supplied system call operations

// * * * * * * * * * * * * * * * * * * * * * * * * * * * * * * * * * * * * * //
Create time

Create mesh for time = 0


SIMPLE: Convergence criteria found
        U: tolerance 0.01
        p: tolerance 0.01
        omega: tolerance 0.0001

Reading field p

Reading field U

Reading/calculating face flux field phi

Selecting viscosity model Newtonian
Selecting turbulence model type RAS
Selecting RAS turbulence model kOmegaSST
Selecting patchDistMethod meshWave
RAS
{
    RASModel        kOmegaSST;
    turbulence      on;
    printCoeffs     on;
    alphaK1         0.85;
    alphaK2         1;
    alphaOmega1     0.5;
    alphaOmega2     0.856;
    gamma1          0.555556;
    gamma2          0.44;
    beta1           0.075;
    beta2           0.0828;
    betaStar        0.09;
    a1              0.31;
    b1              1;
    c1              10;
    F3              false;
}

No MRF models present

--> FOAM Warning : Creating fvModels from "system/fvOptions" rather than constant/fvModels
No fvModels present
--> FOAM Warning : Creating fvConstraints from "system/fvOptions"

Selecting finite volume constraint type meanVelocityForce
    Name: momentumSource
    - selecting all cells
    - selected 200 cell(s) with volume 4
    Initial pressure gradient = 0


Starting time loop

turbulenceFields stressComponents: storing fields:
    R

Time = 1s

smoothSolver:  Solving for Ux, Initial residual = 0, Final residual = 0, No Iterations 0
smoothSolver:  Solving for Uy, Initial residual = 0, Final residual = 0, No Iterations 0
Pressure gradient source: uncorrected Ubar = 0, pressure gradient = 1.19246
GAMG:  Solving for p, Initial residual = 0.999991, Final residual = 0.0411141, No Iterations 3
time step continuity errors : sum local = 8.94489e-17, global = 1.22201e-17, cumulative = 1.22201e-17
Pressure gradient source: uncorrected Ubar = 0.869402, pressure gradient = 0.155733
smoothSolver:  Solving for omega, Initial residual = 0.553304, Final residual = 0.0417278, No Iterations 1
bounding omega, min: -12.682 max: 469.397 average: 23.7429
smoothSolver:  Solving for k, Initial residual = 1, Final residual = 0.0516961, No Iterations 2
ExecutionTime = 0.012753 s  ClockTime = 0 s

Time = 2s

smoothSolver:  Solving for Ux, Initial residual = 0.168271, Final residual = 0.0128811, No Iterations 4
smoothSolver:  Solving for Uy, Initial residual = 1, Final residual = 0.089523, No Iterations 2
Pressure gradient source: uncorrected Ubar = 1.12066, pressure gradient = -0.607887
GAMG:  Solving for p, Initial residual = 1, Final residual = 0.0834106, No Iterations 4
time step continuity errors : sum local = 0.0135453, global = -7.15573e-18, cumulative = 5.06433e-18
Pressure gradient source: uncorrected Ubar = 1.03003, pressure gradient = -0.0342986
smoothSolver:  Solving for omega, Initial residual = 0.078329, Final residual = 0.00327816, No Iterations 2
smoothSolver:  Solving for k, Initial residual = 0.243703, Final residual = 0.0175177, No Iterations 3
ExecutionTime = 0.014876 s  ClockTime = 0 s

Time = 3s

smoothSolver:  Solving for Ux, Initial residual = 0.12911, Final residual = 0.0103169, No Iterations 4
smoothSolver:  Solving for Uy, Initial residual = 0.69407, Final residual = 0.0410795, No Iterations 2
Pressure gradient source: uncorrected Ubar = 0.963068, pressure gradient = 0.331973
GAMG:  Solving for p, Initial residual = 0.109457, Final residual = 0.0068743, No Iterations 4
time step continuity errors : sum local = 0.00180188, global = -5.25838e-18, cumulative = -1.94049e-19
Pressure gradient source: uncorrected Ubar = 0.99433, pressure gradient = 0.0219371
smoothSolver:  Solving for omega, Initial residual = 0.0167293, Final residual = 0.0013768, No Iterations 2
smoothSolver:  Solving for k, Initial residual = 0.208636, Final residual = 0.0162831, No Iterations 2
ExecutionTime = 0.016882 s  ClockTime = 0 s

Time = 4s

smoothSolver:  Solving for Ux, Initial residual = 0.0747073, Final residual = 0.00663974, No Iterations 4
smoothSolver:  Solving for Uy, Initial residual = 0.534123, Final residual = 0.0362802, No Iterations 3
Pressure gradient source: uncorrected Ubar = 1.00402, pressure gradient = -0.020019
GAMG:  Solving for p, Initial residual = 0.038951, Final residual = 0.00245246, No Iterations 9
time step continuity errors : sum local = 0.00165152, global = 5.85427e-18, cumulative = 5.66022e-18
Pressure gradient source: uncorrected Ubar = 1.00061, pressure gradient = 0.0155228
smoothSolver:  Solving for omega, Initial residual = 0.00696164, Final residual = 0.000654345, No Iterations 2
smoothSolver:  Solving for k, Initial residual = 0.109662, Final residual = 0.00737077, No Iterations 3
ExecutionTime = 0.020034 s  ClockTime = 0 s

Time = 5s

smoothSolver:  Solving for Ux, Initial residual = 0.0475469, Final residual = 0.00339761, No Iterations 5
smoothSolver:  Solving for Uy, Initial residual = 0.621593, Final residual = 0.0395676, No Iterations 3
Pressure gradient source: uncorrected Ubar = 1.00187, pressure gradient = -0.0055459
GAMG:  Solving for p, Initial residual = 0.055994, Final residual = 0.00391123, No Iterations 6
time step continuity errors : sum local = 0.00116549, global = -3.67274e-18, cumulative = 1.98748e-18
Pressure gradient source: uncorrected Ubar = 1.00029, pressure gradient = 0.0122772
smoothSolver:  Solving for omega, Initial residual = 0.00431645, Final residual = 0.000313782, No Iterations 3
smoothSolver:  Solving for k, Initial residual = 0.0806353, Final residual = 0.00422828, No Iterations 4
ExecutionTime = 0.023576 s  ClockTime = 0 s

Time = 6s

smoothSolver:  Solving for Ux, Initial residual = 0.0356594, Final residual = 0.00276221, No Iterations 5
smoothSolver:  Solving for Uy, Initial residual = 0.465995, Final residual = 0.0284154, No Iterations 3
Pressure gradient source: uncorrected Ubar = 1.00154, pressure gradient = -0.00588459
GAMG:  Solving for p, Initial residual = 0.100378, Final residual = 0.00889243, No Iterations 11
time step continuity errors : sum local = 0.00117688, global = 1.08827e-17, cumulative = 1.28702e-17
Pressure gradient source: uncorrected Ubar = 1.00023, pressure gradient = 0.0095772
smoothSolver:  Solving for omega, Initial residual = 0.00256293, Final residual = 0.000132992, No Iterations 4
smoothSolver:  Solving for k, Initial residual = 0.0721434, Final residual = 0.00496129, No Iterations 4
ExecutionTime = 0.02737 s  ClockTime = 0 s

Time = 7s

smoothSolver:  Solving for Ux, Initial residual = 0.0273136, Final residual = 0.00229826, No Iterations 5
smoothSolver:  Solving for Uy, Initial residual = 0.509187, Final residual = 0.0250674, No Iterations 3
Pressure gradient source: uncorrected Ubar = 1.00162, pressure gradient = -0.0104592
GAMG:  Solving for p, Initial residual = 0.0801568, Final residual = 0.00772386, No Iterations 10
time step continuity errors : sum local = 0.000853197, global = -3.92684e-18, cumulative = 8.94332e-18
Pressure gradient source: uncorrected Ubar = 1.00023, pressure gradient = 0.00669572
smoothSolver:  Solving for omega, Initial residual = 0.00178381, Final residual = 0.000127346, No Iterations 4
smoothSolver:  Solving for k, Initial residual = 0.0596078, Final residual = 0.00458133, No Iterations 4
ExecutionTime = 0.030183 s  ClockTime = 0 s

Time = 8s

smoothSolver:  Solving for Ux, Initial residual = 0.021163, Final residual = 0.00193174, No Iterations 5
smoothSolver:  Solving for Uy, Initial residual = 0.495945, Final residual = 0.0240878, No Iterations 3
Pressure gradient source: uncorrected Ubar = 1.00104, pressure gradient = -0.00674835
GAMG:  Solving for p, Initial residual = 0.0505246, Final residual = 0.00469714, No Iterations 3
time step continuity errors : sum local = 0.000653359, global = 2.42601e-18, cumulative = 1.13693e-17
Pressure gradient source: uncorrected Ubar = 1.00015, pressure gradient = 0.00479062
smoothSolver:  Solving for omega, Initial residual = 0.00132583, Final residual = 0.000129026, No Iterations 4
smoothSolver:  Solving for k, Initial residual = 0.0524487, Final residual = 0.00366677, No Iterations 4
ExecutionTime = 0.032198 s  ClockTime = 0 s

Time = 9s

smoothSolver:  Solving for Ux, Initial residual = 0.0173328, Final residual = 0.00166181, No Iterations 5
smoothSolver:  Solving for Uy, Initial residual = 0.484853, Final residual = 0.0234371, No Iterations 3
Pressure gradient source: uncorrected Ubar = 1.00056, pressure gradient = -0.00283787
GAMG:  Solving for p, Initial residual = 0.0354743, Final residual = 0.00214026, No Iterations 4
time step continuity errors : sum local = 0.000293054, global = -5.42101e-19, cumulative = 1.08272e-17
Pressure gradient source: uncorrected Ubar = 1.00008, pressure gradient = 0.0037358
smoothSolver:  Solving for omega, Initial residual = 0.00106591, Final residual = 6.57436e-05, No Iterations 5
smoothSolver:  Solving for k, Initial residual = 0.0503739, Final residual = 0.00463205, No Iterations 4
ExecutionTime = 0.034227 s  ClockTime = 0 s

Time = 10s

smoothSolver:  Solving for Ux, Initial residual = 0.0144918, Final residual = 0.000985243, No Iterations 6
smoothSolver:  Solving for Uy, Initial residual = 0.533505, Final residual = 0.0248357, No Iterations 3
Pressure gradient source: uncorrected Ubar = 1.00055, pressure gradient = -0.00394975
GAMG:  Solving for p, Initial residual = 0.0292181, Final residual = 0.00234444, No Iterations 9
time step continuity errors : sum local = 0.000350607, global = -7.17437e-19, cumulative = 1.01098e-17
Pressure gradient source: uncorrected Ubar = 1.00008, pressure gradient = 0.00267875
smoothSolver:  Solving for omega, Initial residual = 0.000876236, Final residual = 8.38163e-05, No Iterations 4
smoothSolver:  Solving for k, Initial residual = 0.0467373, Final residual = 0.00462142, No Iterations 4
ExecutionTime = 0.036521 s  ClockTime = 0 s

Time = 11s

smoothSolver:  Solving for Ux, Initial residual = 0.0124526, Final residual = 0.000904501, No Iterations 6
smoothSolver:  Solving for Uy, Initial residual = 0.667246, Final residual = 0.0350931, No Iterations 3
Pressure gradient source: uncorrected Ubar = 1.00034, pressure gradient = -0.00233365
GAMG:  Solving for p, Initial residual = 0.0299464, Final residual = 0.00289994, No Iterations 11
time step continuity errors : sum local = 0.000362227, global = -3.02052e-18, cumulative = 7.08927e-18
Pressure gradient source: uncorrected Ubar = 1.00005, pressure gradient = 0.00199394
smoothSolver:  Solving for omega, Initial residual = 0.000773564, Final residual = 4.95759e-05, No Iterations 5
smoothSolver:  Solving for k, Initial residual = 0.0433012, Final residual = 0.00426842, No Iterations 4
ExecutionTime = 0.039041 s  ClockTime = 0 s

Time = 12s

smoothSolver:  Solving for Ux, Initial residual = 0.0109183, Final residual = 0.000832271, No Iterations 6
smoothSolver:  Solving for Uy, Initial residual = 0.724772, Final residual = 0.0450654, No Iterations 3
Pressure gradient source: uncorrected Ubar = 1.00022, pressure gradient = -0.00134169
GAMG:  Solving for p, Initial residual = 0.0345385, Final residual = 0.00326889, No Iterations 10
time step continuity errors : sum local = 0.000298867, global = -2.50044e-18, cumulative = 4.58883e-18
Pressure gradient source: uncorrected Ubar = 1.00003, pressure gradient = 0.0015347
smoothSolver:  Solving for omega, Initial residual = 0.000650258, Final residual = 3.84602e-05, No Iterations 5
smoothSolver:  Solving for k, Initial residual = 0.0393697, Final residual = 0.00266583, No Iterations 5
ExecutionTime = 0.041385 s  ClockTime = 0 s

Time = 13s

smoothSolver:  Solving for Ux, Initial residual = 0.00986386, Final residual = 0.00079298, No Iterations 6
smoothSolver:  Solving for Uy, Initial residual = 0.567126, Final residual = 0.0374421, No Iterations 3
Pressure gradient source: uncorrected Ubar = 1.00019, pressure gradient = -0.00139897
GAMG:  Solving for p, Initial residual = 0.0438316, Final residual = 0.00403732, No Iterations 10
time step continuity errors : sum local = 0.000224108, global = 4.81221e-18, cumulative = 9.40103e-18
Pressure gradient source: uncorrected Ubar = 1.00003, pressure gradient = 0.0011245
smoothSolver:  Solving for omega, Initial residual = 0.000576245, Final residual = 4.60058e-05, No Iterations 4
smoothSolver:  Solving for k, Initial residual = 0.0352527, Final residual = 0.00222903, No Iterations 5
ExecutionTime = 0.04372 s  ClockTime = 0 s

Time = 14s

smoothSolver:  Solving for Ux, Initial residual = 0.00907318, Final residual = 0.000762801, No Iterations 6
smoothSolver:  Solving for Uy, Initial residual = 0.420199, Final residual = 0.0267996, No Iterations 3
Pressure gradient source: uncorrected Ubar = 1.00009, pressure gradient = -0.000361924
GAMG:  Solving for p, Initial residual = 0.0611638, Final residual = 0.00529471, No Iterations 10
time step continuity errors : sum local = 0.000175755, global = -6.16598e-18, cumulative = 3.23506e-18
Pressure gradient source: uncorrected Ubar = 1.00001, pressure gradient = 0.000921135
smoothSolver:  Solving for omega, Initial residual = 0.000525367, Final residual = 3.14213e-05, No Iterations 5
smoothSolver:  Solving for k, Initial residual = 0.0330353, Final residual = 0.00215201, No Iterations 5
ExecutionTime = 0.046001 s  ClockTime = 0 s

Time = 15s

smoothSolver:  Solving for Ux, Initial residual = 0.0083985, Final residual = 0.000722732, No Iterations 6
smoothSolver:  Solving for Uy, Initial residual = 0.376371, Final residual = 0.0159848, No Iterations 3
Pressure gradient source: uncorrected Ubar = 1.00007, pressure gradient = -0.000238015
GAMG:  Solving for p, Initial residual = 0.0495517, Final residual = 0.0043789, No Iterations 8
time step continuity errors : sum local = 0.000148647, global = -5.13898e-18, cumulative = -1.90392e-18
Pressure gradient source: uncorrected Ubar = 1.00001, pressure gradient = 0.000761073
smoothSolver:  Solving for omega, Initial residual = 0.000452462, Final residual = 3.55603e-05, No Iterations 4
smoothSolver:  Solving for k, Initial residual = 0.0299313, Final residual = 0.00218918, No Iterations 5
ExecutionTime = 0.048188 s  ClockTime = 0 s

Time = 16s

smoothSolver:  Solving for Ux, Initial residual = 0.00819315, Final residual = 0.000700629, No Iterations 6
smoothSolver:  Solving for Uy, Initial residual = 0.346007, Final residual = 0.0301074, No Iterations 2
Pressure gradient source: uncorrected Ubar = 1.00003, pressure gradient = 0.000319283
GAMG:  Solving for p, Initial residual = 0.0367599, Final residual = 0.00302943, No Iterations 10
time step continuity errors : sum local = 0.000110635, global = -2.81657e-18, cumulative = -4.72049e-18
Pressure gradient source: uncorrected Ubar = 1, pressure gradient = 0.000704261
smoothSolver:  Solving for omega, Initial residual = 0.00042715, Final residual = 3.68476e-05, No Iterations 5
smoothSolver:  Solving for k, Initial residual = 0.0249819, Final residual = 0.00179068, No Iterations 5
ExecutionTime = 0.050473 s  ClockTime = 0 s

Time = 17s

smoothSolver:  Solving for Ux, Initial residual = 0.00803722, Final residual = 0.00067623, No Iterations 6
smoothSolver:  Solving for Uy, Initial residual = 0.375844, Final residual = 0.0162289, No Iterations 3
Pressure gradient source: uncorrected Ubar = 1.00004, pressure gradient = 1.68627e-05
GAMG:  Solving for p, Initial residual = 0.0308144, Final residual = 0.00277726, No Iterations 9
time step continuity errors : sum local = 0.00010302, global = -2.91001e-18, cumulative = -7.6305e-18
Pressure gradient source: uncorrected Ubar = 1.00001, pressure gradient = 0.000607146
smoothSolver:  Solving for omega, Initial residual = 0.000398621, Final residual = 2.77564e-05, No Iterations 5
smoothSolver:  Solving for k, Initial residual = 0.021898, Final residual = 0.00141442, No Iterations 5
ExecutionTime = 0.054071 s  ClockTime = 0 s

Time = 18s

smoothSolver:  Solving for Ux, Initial residual = 0.00790623, Final residual = 0.000654441, No Iterations 6
smoothSolver:  Solving for Uy, Initial residual = 0.430981, Final residual = 0.0193734, No Iterations 3
Pressure gradient source: uncorrected Ubar = 1.00002, pressure gradient = 0.000271932
GAMG:  Solving for p, Initial residual = 0.0298078, Final residual = 0.002871, No Iterations 11
time step continuity errors : sum local = 0.000106261, global = -1.43551e-18, cumulative = -9.06601e-18
Pressure gradient source: uncorrected Ubar = 1, pressure gradient = 0.0005596
smoothSolver:  Solving for omega, Initial residual = 0.000379512, Final residual = 2.97448e-05, No Iterations 5
smoothSolver:  Solving for k, Initial residual = 0.0198791, Final residual = 0.00137988, No Iterations 5
ExecutionTime = 0.056444 s  ClockTime = 0 s

Time = 19s

smoothSolver:  Solving for Ux, Initial residual = 0.0078172, Final residual = 0.000639231, No Iterations 6
smoothSolver:  Solving for Uy, Initial residual = 0.511741, Final residual = 0.0254403, No Iterations 3
Pressure gradient source: uncorrected Ubar = 0.999996, pressure gradient = 0.000630719
GAMG:  Solving for p, Initial residual = 0.0302718, Final residual = 0.0026958, No Iterations 10
time step continuity errors : sum local = 7.59455e-05, global = 2.22579e-18, cumulative = -6.84021e-18
Pressure gradient source: uncorrected Ubar = 0.999999, pressure gradient = 0.000570179
smoothSolver:  Solving for omega, Initial residual = 0.000342333, Final residual = 2.60915e-05, No Iterations 5
smoothSolver:  Solving for k, Initial residual = 0.0180487, Final residual = 0.00134026, No Iterations 5
ExecutionTime = 0.058738 s  ClockTime = 0 s

Time = 20s

smoothSolver:  Solving for Ux, Initial residual = 0.0077348, Final residual = 0.000624208, No Iterations 6
smoothSolver:  Solving for Uy, Initial residual = 0.581895, Final residual = 0.0326746, No Iterations 3
Pressure gradient source: uncorrected Ubar = 0.99999, pressure gradient = 0.000752033
GAMG:  Solving for p, Initial residual = 0.0302072, Final residual = 0.00268745, No Iterations 10
time step continuity errors : sum local = 7.31391e-05, global = -1.17676e-17, cumulative = -1.86078e-17
Pressure gradient source: uncorrected Ubar = 0.999999, pressure gradient = 0.000595388
smoothSolver:  Solving for omega, Initial residual = 0.000348077, Final residual = 3.27501e-05, No Iterations 4
smoothSolver:  Solving for k, Initial residual = 0.0160009, Final residual = 0.00110356, No Iterations 5
ExecutionTime = 0.06099 s  ClockTime = 0 s

Time = 21s

smoothSolver:  Solving for Ux, Initial residual = 0.0076367, Final residual = 0.00060988, No Iterations 6
smoothSolver:  Solving for Uy, Initial residual = 0.632051, Final residual = 0.0329848, No Iterations 3
Pressure gradient source: uncorrected Ubar = 0.999981, pressure gradient = 0.000968275
GAMG:  Solving for p, Initial residual = 0.0306139, Final residual = 0.00302848, No Iterations 8
time step continuity errors : sum local = 7.167e-05, global = 5.37739e-18, cumulative = -1.32305e-17
Pressure gradient source: uncorrected Ubar = 0.999997, pressure gradient = 0.000647104
smoothSolver:  Solving for omega, Initial residual = 0.000314764, Final residual = 2.58911e-05, No Iterations 4
smoothSolver:  Solving for k, Initial residual = 0.0146438, Final residual = 0.00114043, No Iterations 5
ExecutionTime = 0.063194 s  ClockTime = 0 s

Time = 22s

smoothSolver:  Solving for Ux, Initial residual = 0.00755965, Final residual = 0.000598179, No Iterations 6
smoothSolver:  Solving for Uy, Initial residual = 0.633294, Final residual = 0.0589314, No Iterations 2
Pressure gradient source: uncorrected Ubar = 0.999974, pressure gradient = 0.00117523
GAMG:  Solving for p, Initial residual = 0.0308774, Final residual = 0.00288869, No Iterations 12
time step continuity errors : sum local = 5.67344e-05, global = -1.40413e-17, cumulative = -2.72717e-17
Pressure gradient source: uncorrected Ubar = 0.999996, pressure gradient = 0.000720692
smoothSolver:  Solving for omega, Initial residual = 0.000326873, Final residual = 2.17681e-05, No Iterations 5
smoothSolver:  Solving for k, Initial residual = 0.0133687, Final residual = 0.001038, No Iterations 5
ExecutionTime = 0.065505 s  ClockTime = 0 s

Time = 23s

smoothSolver:  Solving for Ux, Initial residual = 0.00747426, Final residual = 0.000585849, No Iterations 6
smoothSolver:  Solving for Uy, Initial residual = 0.622207, Final residual = 0.0525462, No Iterations 2
Pressure gradient source: uncorrected Ubar = 0.999975, pressure gradient = 0.00123921
GAMG:  Solving for p, Initial residual = 0.0287286, Final residual = 0.00266853, No Iterations 10
time step continuity errors : sum local = 4.61153e-05, global = -6.49621e-18, cumulative = -3.3768e-17
Pressure gradient source: uncorrected Ubar = 0.999997, pressure gradient = 0.000790007
smoothSolver:  Solving for omega, Initial residual = 0.000318642, Final residual = 2.32194e-05, No Iterations 5
smoothSolver:  Solving for k, Initial residual = 0.0122412, Final residual = 0.000833544, No Iterations 5
ExecutionTime = 0.067764 s  ClockTime = 0 s

Time = 24s

smoothSolver:  Solving for Ux, Initial residual = 0.00737429, Final residual = 0.000572629, No Iterations 6
smoothSolver:  Solving for Uy, Initial residual = 0.561568, Final residual = 0.0474611, No Iterations 2
Pressure gradient source: uncorrected Ubar = 0.999978, pressure gradient = 0.00124843
GAMG:  Solving for p, Initial residual = 0.0281498, Final residual = 0.00274161, No Iterations 7
time step continuity errors : sum local = 4.78749e-05, global = -3.25949e-19, cumulative = -3.40939e-17
Pressure gradient source: uncorrected Ubar = 0.999997, pressure gradient = 0.000847327
smoothSolver:  Solving for omega, Initial residual = 0.0003179, Final residual = 3.10427e-05, No Iterations 4
smoothSolver:  Solving for k, Initial residual = 0.0118433, Final residual = 0.000860883, No Iterations 5
ExecutionTime = 0.070046 s  ClockTime = 0 s

Time = 25s

smoothSolver:  Solving for Ux, Initial residual = 0.00727853, Final residual = 0.000560882, No Iterations 6
smoothSolver:  Solving for Uy, Initial residual = 0.491592, Final residual = 0.0378764, No Iterations 2
Pressure gradient source: uncorrected Ubar = 0.999973, pressure gradient = 0.00142854
GAMG:  Solving for p, Initial residual = 0.0269575, Final residual = 0.00259952, No Iterations 5
time step continuity errors : sum local = 3.92679e-05, global = 4.19133e-18, cumulative = -2.99026e-17
Pressure gradient source: uncorrected Ubar = 0.999997, pressure gradient = 0.000921011
smoothSolver:  Solving for omega, Initial residual = 0.000304837, Final residual = 2.70557e-05, No Iterations 4
smoothSolver:  Solving for k, Initial residual = 0.0114729, Final residual = 0.000930486, No Iterations 5
ExecutionTime = 0.072257 s  ClockTime = 0 s

Time = 26s

smoothSolver:  Solving for Ux, Initial residual = 0.00717702, Final residual = 0.00054822, No Iterations 6
smoothSolver:  Solving for Uy, Initial residual = 0.396354, Final residual = 0.0292408, No Iterations 2
Pressure gradient source: uncorrected Ubar = 0.999979, pressure gradient = 0.00137886
GAMG:  Solving for p, Initial residual = 0.0251234, Final residual = 0.00250891, No Iterations 3
time step continuity errors : sum local = 3.47844e-05, global = -9.05327e-18, cumulative = -3.89558e-17
Pressure gradient source: uncorrected Ubar = 0.999998, pressure gradient = 0.000972619
smoothSolver:  Solving for omega, Initial residual = 0.000317248, Final residual = 1.95656e-05, No Iterations 5
smoothSolver:  Solving for k, Initial residual = 0.0113273, Final residual = 0.000937857, No Iterations 5
ExecutionTime = 0.074399 s  ClockTime = 0 s

Time = 27s

smoothSolver:  Solving for Ux, Initial residual = 0.00707905, Final residual = 0.000535905, No Iterations 6
smoothSolver:  Solving for Uy, Initial residual = 0.330351, Final residual = 0.025543, No Iterations 2
Pressure gradient source: uncorrected Ubar = 0.999978, pressure gradient = 0.00145396
GAMG:  Solving for p, Initial residual = 0.0241482, Final residual = 0.00190205, No Iterations 3
time step continuity errors : sum local = 2.41995e-05, global = -5.34716e-19, cumulative = -3.94906e-17
Pressure gradient source: uncorrected Ubar = 0.999998, pressure gradient = 0.0010253
smoothSolver:  Solving for omega, Initial residual = 0.000302268, Final residual = 2.98528e-05, No Iterations 4
smoothSolver:  Solving for k, Initial residual = 0.00996923, Final residual = 0.000722068, No Iterations 5
ExecutionTime = 0.076373 s  ClockTime = 0 s

Time = 28s

smoothSolver:  Solving for Ux, Initial residual = 0.00700609, Final residual = 0.000526864, No Iterations 6
smoothSolver:  Solving for Uy, Initial residual = 0.292776, Final residual = 0.0216777, No Iterations 2
Pressure gradient source: uncorrected Ubar = 0.999968, pressure gradient = 0.00176465
GAMG:  Solving for p, Initial residual = 0.023448, Final residual = 0.00140738, No Iterations 3
time step continuity errors : sum local = 1.56268e-05, global = -4.66216e-18, cumulative = -4.41527e-17
Pressure gradient source: uncorrected Ubar = 0.999996, pressure gradient = 0.00111659
smoothSolver:  Solving for omega, Initial residual = 0.000307646, Final residual = 2.03339e-05, No Iterations 5
smoothSolver:  Solving for k, Initial residual = 0.00951496, Final residual = 0.00069483, No Iterations 5
ExecutionTime = 0.078323 s  ClockTime = 0 s

Time = 29s

smoothSolver:  Solving for Ux, Initial residual = 0.00691843, Final residual = 0.00051708, No Iterations 6
smoothSolver:  Solving for Uy, Initial residual = 0.278652, Final residual = 0.0232043, No Iterations 2
Pressure gradient source: uncorrected Ubar = 0.999972, pressure gradient = 0.00177236
GAMG:  Solving for p, Initial residual = 0.0230793, Final residual = 0.00223216, No Iterations 2
time step continuity errors : sum local = 2.11643e-05, global = 3.56982e-18, cumulative = -4.05829e-17
Pressure gradient source: uncorrected Ubar = 0.999997, pressure gradient = 0.00119221
smoothSolver:  Solving for omega, Initial residual = 0.000298965, Final residual = 2.82715e-05, No Iterations 4
smoothSolver:  Solving for k, Initial residual = 0.00881988, Final residual = 0.000712838, No Iterations 5
ExecutionTime = 0.080214 s  ClockTime = 0 s

Time = 30s

smoothSolver:  Solving for Ux, Initial residual = 0.0068244, Final residual = 0.000506285, No Iterations 6
smoothSolver:  Solving for Uy, Initial residual = 0.281572, Final residual = 0.0281182, No Iterations 2
Pressure gradient source: uncorrected Ubar = 0.999979, pressure gradient = 0.00168312
GAMG:  Solving for p, Initial residual = 0.0232204, Final residual = 0.00210198, No Iterations 2
time step continuity errors : sum local = 1.84145e-05, global = -1.91488e-17, cumulative = -5.97317e-17
Pressure gradient source: uncorrected Ubar = 0.999998, pressure gradient = 0.00123913
smoothSolver:  Solving for omega, Initial residual = 0.000301025, Final residual = 3.00081e-05, No Iterations 4
smoothSolver:  Solving for k, Initial residual = 0.00863089, Final residual = 0.000733152, No Iterations 5
ExecutionTime = 0.082242 s  ClockTime = 0 s

Time = 31s

smoothSolver:  Solving for Ux, Initial residual = 0.00674133, Final residual = 0.000496864, No Iterations 6
smoothSolver:  Solving for Uy, Initial residual = 0.319735, Final residual = 0.0177762, No Iterations 3
Pressure gradient source: uncorrected Ubar = 0.999976, pressure gradient = 0.00181017
GAMG:  Solving for p, Initial residual = 0.0239866, Final residual = 0.00216602, No Iterations 2
time step continuity errors : sum local = 1.72244e-05, global = 4.72701e-19, cumulative = -5.9259e-17
Pressure gradient source: uncorrected Ubar = 0.999998, pressure gradient = 0.00129657
smoothSolver:  Solving for omega, Initial residual = 0.000292814, Final residual = 2.88692e-05, No Iterations 4
smoothSolver:  Solving for k, Initial residual = 0.00777895, Final residual = 0.000550073, No Iterations 5
ExecutionTime = 0.084396 s  ClockTime = 0 s

Time = 32s

smoothSolver:  Solving for Ux, Initial residual = 0.00668137, Final residual = 0.000490461, No Iterations 6
smoothSolver:  Solving for Uy, Initial residual = 0.360633, Final residual = 0.0204566, No Iterations 3
Pressure gradient source: uncorrected Ubar = 0.999967, pressure gradient = 0.00210365
GAMG:  Solving for p, Initial residual = 0.0258091, Final residual = 0.00206995, No Iterations 3
time step continuity errors : sum local = 1.46431e-05, global = -2.27725e-18, cumulative = -6.15362e-17
Pressure gradient source: uncorrected Ubar = 0.999996, pressure gradient = 0.00138988
smoothSolver:  Solving for omega, Initial residual = 0.000294055, Final residual = 2.92274e-05, No Iterations 4
smoothSolver:  Solving for k, Initial residual = 0.00720527, Final residual = 0.000594975, No Iterations 5
ExecutionTime = 0.086527 s  ClockTime = 0 s

Time = 33s

smoothSolver:  Solving for Ux, Initial residual = 0.00660985, Final residual = 0.000482671, No Iterations 6
smoothSolver:  Solving for Uy, Initial residual = 0.384061, Final residual = 0.0230752, No Iterations 3
Pressure gradient source: uncorrected Ubar = 0.999976, pressure gradient = 0.00199669
GAMG:  Solving for p, Initial residual = 0.0302663, Final residual = 0.0026883, No Iterations 9
time step continuity errors : sum local = 1.5033e-05, global = -1.0932e-18, cumulative = -6.26294e-17
Pressure gradient source: uncorrected Ubar = 0.999998, pressure gradient = 0.00144905
smoothSolver:  Solving for omega, Initial residual = 0.000290521, Final residual = 1.79657e-05, No Iterations 5
smoothSolver:  Solving for k, Initial residual = 0.00652783, Final residual = 0.000500625, No Iterations 5
ExecutionTime = 0.088753 s  ClockTime = 0 s

Time = 34s

smoothSolver:  Solving for Ux, Initial residual = 0.00654752, Final residual = 0.000475899, No Iterations 6
smoothSolver:  Solving for Uy, Initial residual = 0.367472, Final residual = 0.0217575, No Iterations 3
Pressure gradient source: uncorrected Ubar = 0.999973, pressure gradient = 0.00211977
GAMG:  Solving for p, Initial residual = 0.039261, Final residual = 0.00321397, No Iterations 8
time step continuity errors : sum local = 1.3101e-05, global = 8.2546e-18, cumulative = -5.43748e-17
Pressure gradient source: uncorrected Ubar = 0.999997, pressure gradient = 0.00151647
smoothSolver:  Solving for omega, Initial residual = 0.000282318, Final residual = 2.70756e-05, No Iterations 4
smoothSolver:  Solving for k, Initial residual = 0.0060427, Final residual = 0.000398693, No Iterations 5
ExecutionTime = 0.090915 s  ClockTime = 0 s

Time = 35s

smoothSolver:  Solving for Ux, Initial residual = 0.00648561, Final residual = 0.000469451, No Iterations 6
smoothSolver:  Solving for Uy, Initial residual = 0.339988, Final residual = 0.0192065, No Iterations 3
Pressure gradient source: uncorrected Ubar = 0.999975, pressure gradient = 0.00215493
GAMG:  Solving for p, Initial residual = 0.0531191, Final residual = 0.00521657, No Iterations 8
time step continuity errors : sum local = 1.38591e-05, global = -1.61679e-18, cumulative = -5.59916e-17
Pressure gradient source: uncorrected Ubar = 0.999998, pressure gradient = 0.00157725
smoothSolver:  Solving for omega, Initial residual = 0.000280866, Final residual = 2.02078e-05, No Iterations 5
smoothSolver:  Solving for k, Initial residual = 0.00561826, Final residual = 0.000475231, No Iterations 5
ExecutionTime = 0.093065 s  ClockTime = 0 s

Time = 36s

smoothSolver:  Solving for Ux, Initial residual = 0.00643396, Final residual = 0.000464061, No Iterations 6
smoothSolver:  Solving for Uy, Initial residual = 0.315641, Final residual = 0.0287656, No Iterations 2
Pressure gradient source: uncorrected Ubar = 0.999972, pressure gradient = 0.00230721
GAMG:  Solving for p, Initial residual = 0.0421704, Final residual = 0.00385813, No Iterations 10
time step continuity errors : sum local = 1.1016e-05, global = 8.35683e-18, cumulative = -4.76348e-17
Pressure gradient source: uncorrected Ubar = 0.999997, pressure gradient = 0.00165103
smoothSolver:  Solving for omega, Initial residual = 0.000276132, Final residual = 2.03614e-05, No Iterations 5
smoothSolver:  Solving for k, Initial residual = 0.00540177, Final residual = 0.000425765, No Iterations 5
ExecutionTime = 0.095264 s  ClockTime = 0 s

Time = 37s

smoothSolver:  Solving for Ux, Initial residual = 0.00637646, Final residual = 0.000458067, No Iterations 6
smoothSolver:  Solving for Uy, Initial residual = 0.314142, Final residual = 0.0239387, No Iterations 2
Pressure gradient source: uncorrected Ubar = 0.999978, pressure gradient = 0.00223776
GAMG:  Solving for p, Initial residual = 0.0323058, Final residual = 0.0030958, No Iterations 8
time step continuity errors : sum local = 9.69223e-06, global = -8.97749e-19, cumulative = -4.85325e-17
Pressure gradient source: uncorrected Ubar = 0.999998, pressure gradient = 0.00169986
smoothSolver:  Solving for omega, Initial residual = 0.000268023, Final residual = 1.87343e-05, No Iterations 5
smoothSolver:  Solving for k, Initial residual = 0.00511552, Final residual = 0.000381559, No Iterations 5
ExecutionTime = 0.097436 s  ClockTime = 0 s

Time = 38s

smoothSolver:  Solving for Ux, Initial residual = 0.00632445, Final residual = 0.000452553, No Iterations 6
smoothSolver:  Solving for Uy, Initial residual = 0.306997, Final residual = 0.025212, No Iterations 2
Pressure gradient source: uncorrected Ubar = 0.999978, pressure gradient = 0.00227817
GAMG:  Solving for p, Initial residual = 0.028371, Final residual = 0.00260248, No Iterations 8
time step continuity errors : sum local = 8.27387e-06, global = -6.60649e-18, cumulative = -5.5139e-17
Pressure gradient source: uncorrected Ubar = 0.999998, pressure gradient = 0.00174589
smoothSolver:  Solving for omega, Initial residual = 0.000261162, Final residual = 2.60239e-05, No Iterations 4
smoothSolver:  Solving for k, Initial residual = 0.00479541, Final residual = 0.000422328, No Iterations 5
ExecutionTime = 0.099696 s  ClockTime = 0 s

Time = 39s

smoothSolver:  Solving for Ux, Initial residual = 0.00626749, Final residual = 0.000446543, No Iterations 6
smoothSolver:  Solving for Uy, Initial residual = 0.281349, Final residual = 0.0249857, No Iterations 2
Pressure gradient source: uncorrected Ubar = 0.999982, pressure gradient = 0.00223399
GAMG:  Solving for p, Initial residual = 0.0259439, Final residual = 0.002478, No Iterations 8
time step continuity errors : sum local = 7.31546e-06, global = -2.55501e-18, cumulative = -5.7694e-17
Pressure gradient source: uncorrected Ubar = 0.999999, pressure gradient = 0.00177609
smoothSolver:  Solving for omega, Initial residual = 0.000255308, Final residual = 2.53618e-05, No Iterations 4
smoothSolver:  Solving for k, Initial residual = 0.00455176, Final residual = 0.00035813, No Iterations 5
ExecutionTime = 0.101939 s  ClockTime = 0 s

Time = 40s

smoothSolver:  Solving for Ux, Initial residual = 0.00622387, Final residual = 0.000441967, No Iterations 6
smoothSolver:  Solving for Uy, Initial residual = 0.250926, Final residual = 0.0213626, No Iterations 2
Pressure gradient source: uncorrected Ubar = 0.999978, pressure gradient = 0.00237911
GAMG:  Solving for p, Initial residual = 0.0245387, Final residual = 0.00223662, No Iterations 6
time step continuity errors : sum local = 6.46566e-06, global = -1.23406e-18, cumulative = -5.89281e-17
Pressure gradient source: uncorrected Ubar = 0.999998, pressure gradient = 0.00182395
smoothSolver:  Solving for omega, Initial residual = 0.000255508, Final residual = 1.94482e-05, No Iterations 5
smoothSolver:  Solving for k, Initial residual = 0.00463548, Final residual = 0.000417289, No Iterations 5
ExecutionTime = 0.104093 s  ClockTime = 0 s

Time = 41s

smoothSolver:  Solving for Ux, Initial residual = 0.00618285, Final residual = 0.000437952, No Iterations 6
smoothSolver:  Solving for Uy, Initial residual = 0.234615, Final residual = 0.0202144, No Iterations 2
Pressure gradient source: uncorrected Ubar = 0.999977, pressure gradient = 0.00244315
GAMG:  Solving for p, Initial residual = 0.0235692, Final residual = 0.00222355, No Iterations 4
time step continuity errors : sum local = 6.059e-06, global = 4.61135e-18, cumulative = -5.43167e-17
Pressure gradient source: uncorrected Ubar = 0.999998, pressure gradient = 0.00187318
smoothSolver:  Solving for omega, Initial residual = 0.000248791, Final residual = 1.92478e-05, No Iterations 5
smoothSolver:  Solving for k, Initial residual = 0.00471303, Final residual = 0.000308885, No Iterations 6
ExecutionTime = 0.106211 s  ClockTime = 0 s

Time = 42s

smoothSolver:  Solving for Ux, Initial residual = 0.00613487, Final residual = 0.000433128, No Iterations 6
smoothSolver:  Solving for Uy, Initial residual = 0.21359, Final residual = 0.0174882, No Iterations 2
Pressure gradient source: uncorrected Ubar = 0.999982, pressure gradient = 0.00237662
GAMG:  Solving for p, Initial residual = 0.0229431, Final residual = 0.00222254, No Iterations 2
time step continuity errors : sum local = 5.40522e-06, global = 2.27386e-18, cumulative = -5.20429e-17
Pressure gradient source: uncorrected Ubar = 0.999999, pressure gradient = 0.00190253
smoothSolver:  Solving for omega, Initial residual = 0.000245026, Final residual = 1.90144e-05, No Iterations 5
smoothSolver:  Solving for k, Initial residual = 0.00452603, Final residual = 0.000421355, No Iterations 5
ExecutionTime = 0.108214 s  ClockTime = 0 s

Time = 43s

smoothSolver:  Solving for Ux, Initial residual = 0.00609245, Final residual = 0.000428562, No Iterations 6
smoothSolver:  Solving for Uy, Initial residual = 0.181763, Final residual = 0.0126786, No Iterations 2
Pressure gradient source: uncorrected Ubar = 0.999982, pressure gradient = 0.00239459
GAMG:  Solving for p, Initial residual = 0.023636, Final residual = 0.00227731, No Iterations 2
time step continuity errors : sum local = 4.98045e-06, global = 5.27225e-18, cumulative = -4.67706e-17
Pressure gradient source: uncorrected Ubar = 0.999999, pressure gradient = 0.0019288
smoothSolver:  Solving for omega, Initial residual = 0.000233919, Final residual = 2.21307e-05, No Iterations 4
smoothSolver:  Solving for k, Initial residual = 0.0046029, Final residual = 0.000422158, No Iterations 5
ExecutionTime = 0.110204 s  ClockTime = 0 s

Time = 44s

smoothSolver:  Solving for Ux, Initial residual = 0.00605617, Final residual = 0.000424691, No Iterations 6
smoothSolver:  Solving for Uy, Initial residual = 0.175306, Final residual = 0.0152091, No Iterations 2
Pressure gradient source: uncorrected Ubar = 0.999982, pressure gradient = 0.00243759
GAMG:  Solving for p, Initial residual = 0.0242071, Final residual = 0.00206321, No Iterations 2
time step continuity errors : sum local = 3.93271e-06, global = -4.21061e-18, cumulative = -5.09812e-17
Pressure gradient source: uncorrected Ubar = 0.999999, pressure gradient = 0.00195693
smoothSolver:  Solving for omega, Initial residual = 0.000230964, Final residual = 1.42815e-05, No Iterations 5
smoothSolver:  Solving for k, Initial residual = 0.00432831, Final residual = 0.000300969, No Iterations 5
ExecutionTime = 0.11222 s  ClockTime = 0 s

Time = 45s

smoothSolver:  Solving for Ux, Initial residual = 0.00603269, Final residual = 0.000422407, No Iterations 6
smoothSolver:  Solving for Uy, Initial residual = 0.155188, Final residual = 0.0145372, No Iterations 2
Pressure gradient source: uncorrected Ubar = 0.999977, pressure gradient = 0.00262385
GAMG:  Solving for p, Initial residual = 0.0244316, Final residual = 0.00151029, No Iterations 3
time step continuity errors : sum local = 2.61263e-06, global = -1.02901e-17, cumulative = -6.12713e-17
Pressure gradient source: uncorrected Ubar = 0.999998, pressure gradient = 0.00201022
smoothSolver:  Solving for omega, Initial residual = 0.000224067, Final residual = 2.00859e-05, No Iterations 4
smoothSolver:  Solving for k, Initial residual = 0.00464899, Final residual = 0.000433513, No Iterations 5
ExecutionTime = 0.114202 s  ClockTime = 0 s

Time = 46s

smoothSolver:  Solving for Ux, Initial residual = 0.00600351, Final residual = 0.000419653, No Iterations 6
smoothSolver:  Solving for Uy, Initial residual = 0.136332, Final residual = 0.0123529, No Iterations 2
Pressure gradient source: uncorrected Ubar = 0.99998, pressure gradient = 0.00258295
GAMG:  Solving for p, Initial residual = 0.0233435, Final residual = 0.00227612, No Iterations 2
time step continuity errors : sum local = 3.25852e-06, global = 1.57506e-18, cumulative = -5.96963e-17
Pressure gradient source: uncorrected Ubar = 0.999999, pressure gradient = 0.00204735
smoothSolver:  Solving for omega, Initial residual = 0.000226376, Final residual = 1.55542e-05, No Iterations 5
smoothSolver:  Solving for k, Initial residual = 0.00472901, Final residual = 0.000438555, No Iterations 5
ExecutionTime = 0.116221 s  ClockTime = 0 s

Time = 47s

smoothSolver:  Solving for Ux, Initial residual = 0.00597277, Final residual = 0.000416684, No Iterations 6
smoothSolver:  Solving for Uy, Initial residual = 0.119326, Final residual = 0.0117814, No Iterations 2
Pressure gradient source: uncorrected Ubar = 0.999981, pressure gradient = 0.00259844
GAMG:  Solving for p, Initial residual = 0.0241028, Final residual = 0.00206545, No Iterations 3
time step continuity errors : sum local = 2.73982e-06, global = 1.02687e-18, cumulative = -5.86694e-17
Pressure gradient source: uncorrected Ubar = 0.999999, pressure gradient = 0.00208027
smoothSolver:  Solving for omega, Initial residual = 0.000218271, Final residual = 2.11928e-05, No Iterations 4
smoothSolver:  Solving for k, Initial residual = 0.00482233, Final residual = 0.000442999, No Iterations 5
ExecutionTime = 0.118416 s  ClockTime = 0 s

Time = 48s

smoothSolver:  Solving for Ux, Initial residual = 0.00594704, Final residual = 0.000414078, No Iterations 6
smoothSolver:  Solving for Uy, Initial residual = 0.102604, Final residual = 0.00834401, No Iterations 2
Pressure gradient source: uncorrected Ubar = 0.999981, pressure gradient = 0.00262527
GAMG:  Solving for p, Initial residual = 0.0262424, Final residual = 0.00239836, No Iterations 6
time step continuity errors : sum local = 2.62148e-06, global = -7.34766e-18, cumulative = -6.60171e-17
Pressure gradient source: uncorrected Ubar = 0.999999, pressure gradient = 0.00211161
smoothSolver:  Solving for omega, Initial residual = 0.000218062, Final residual = 2.16041e-05, No Iterations 4
smoothSolver:  Solving for k, Initial residual = 0.00479439, Final residual = 0.000376004, No Iterations 5
ExecutionTime = 0.120574 s  ClockTime = 0 s

Time = 49s

smoothSolver:  Solving for Ux, Initial residual = 0.00592024, Final residual = 0.000411345, No Iterations 6
smoothSolver:  Solving for Uy, Initial residual = 0.0966155, Final residual = 0.00837793, No Iterations 2
Pressure gradient source: uncorrected Ubar = 0.999983, pressure gradient = 0.00262507
GAMG:  Solving for p, Initial residual = 0.0311745, Final residual = 0.00300304, No Iterations 5
time step continuity errors : sum local = 2.75692e-06, global = 9.15064e-18, cumulative = -5.68664e-17
Pressure gradient source: uncorrected Ubar = 0.999999, pressure gradient = 0.0021372
smoothSolver:  Solving for omega, Initial residual = 0.000216588, Final residual = 1.62499e-05, No Iterations 5
smoothSolver:  Solving for k, Initial residual = 0.00519565, Final residual = 0.000513761, No Iterations 5
ExecutionTime = 0.122689 s  ClockTime = 0 s

Time = 50s

smoothSolver:  Solving for Ux, Initial residual = 0.00589379, Final residual = 0.000408774, No Iterations 6
smoothSolver:  Solving for Uy, Initial residual = 0.0989903, Final residual = 0.00575569, No Iterations 3
Pressure gradient source: uncorrected Ubar = 0.999983, pressure gradient = 0.00264522
GAMG:  Solving for p, Initial residual = 0.0335938, Final residual = 0.00281387, No Iterations 9
time step continuity errors : sum local = 2.13556e-06, global = 5.14784e-18, cumulative = -5.17186e-17
Pressure gradient source: uncorrected Ubar = 0.999999, pressure gradient = 0.00216141
smoothSolver:  Solving for omega, Initial residual = 0.000209715, Final residual = 1.51032e-05, No Iterations 5
smoothSolver:  Solving for k, Initial residual = 0.00526403, Final residual = 0.000489852, No Iterations 5
ExecutionTime = 0.124844 s  ClockTime = 0 s

Time = 51s

smoothSolver:  Solving for Ux, Initial residual = 0.00587159, Final residual = 0.000406824, No Iterations 6
smoothSolver:  Solving for Uy, Initial residual = 0.0967905, Final residual = 0.00892428, No Iterations 2
Pressure gradient source: uncorrected Ubar = 0.999982, pressure gradient = 0.00271235
GAMG:  Solving for p, Initial residual = 0.0356152, Final residual = 0.00329758, No Iterations 8
time step continuity errors : sum local = 2.30474e-06, global = 4.81131e-19, cumulative = -5.12374e-17
Pressure gradient source: uncorrected Ubar = 0.999999, pressure gradient = 0.00219227
smoothSolver:  Solving for omega, Initial residual = 0.000207199, Final residual = 1.61904e-05, No Iterations 5
smoothSolver:  Solving for k, Initial residual = 0.00533828, Final residual = 0.000354871, No Iterations 6
ExecutionTime = 0.127006 s  ClockTime = 0 s

Time = 52s

smoothSolver:  Solving for Ux, Initial residual = 0.00584492, Final residual = 0.000404144, No Iterations 6
smoothSolver:  Solving for Uy, Initial residual = 0.0920032, Final residual = 0.005794, No Iterations 3
Pressure gradient source: uncorrected Ubar = 0.999985, pressure gradient = 0.00264531
GAMG:  Solving for p, Initial residual = 0.0369944, Final residual = 0.00331588, No Iterations 10
time step continuity errors : sum local = 2.25413e-06, global = 8.95327e-19, cumulative = -5.03421e-17
Pressure gradient source: uncorrected Ubar = 1, pressure gradient = 0.00220653
smoothSolver:  Solving for omega, Initial residual = 0.000198829, Final residual = 1.3443e-05, No Iterations 5
smoothSolver:  Solving for k, Initial residual = 0.0053185, Final residual = 0.000460782, No Iterations 5
ExecutionTime = 0.12928 s  ClockTime = 0 s

Time = 53s

smoothSolver:  Solving for Ux, Initial residual = 0.00582969, Final residual = 0.000402589, No Iterations 6
smoothSolver:  Solving for Uy, Initial residual = 0.096193, Final residual = 0.00788713, No Iterations 3
Pressure gradient source: uncorrected Ubar = 0.999982, pressure gradient = 0.00275461
GAMG:  Solving for p, Initial residual = 0.0379037, Final residual = 0.00353648, No Iterations 11
time step continuity errors : sum local = 1.94652e-06, global = 1.22959e-17, cumulative = -3.80462e-17
Pressure gradient source: uncorrected Ubar = 0.999999, pressure gradient = 0.00223622
smoothSolver:  Solving for omega, Initial residual = 0.000195975, Final residual = 1.27585e-05, No Iterations 5
smoothSolver:  Solving for k, Initial residual = 0.00572885, Final residual = 0.000566094, No Iterations 5
ExecutionTime = 0.131589 s  ClockTime = 0 s

Time = 54s

smoothSolver:  Solving for Ux, Initial residual = 0.00580707, Final residual = 0.000400344, No Iterations 6
smoothSolver:  Solving for Uy, Initial residual = 0.0811327, Final residual = 0.00512518, No Iterations 3
Pressure gradient source: uncorrected Ubar = 0.999985, pressure gradient = 0.00269145
GAMG:  Solving for p, Initial residual = 0.0370029, Final residual = 0.00358843, No Iterations 12
time step continuity errors : sum local = 1.713e-06, global = 7.36498e-18, cumulative = -3.06812e-17
Pressure gradient source: uncorrected Ubar = 1, pressure gradient = 0.0022501
smoothSolver:  Solving for omega, Initial residual = 0.000191237, Final residual = 1.22634e-05, No Iterations 5
smoothSolver:  Solving for k, Initial residual = 0.00570004, Final residual = 0.000478548, No Iterations 5
ExecutionTime = 0.13393 s  ClockTime = 0 s

Time = 55s

smoothSolver:  Solving for Ux, Initial residual = 0.00579338, Final residual = 0.000398879, No Iterations 6
smoothSolver:  Solving for Uy, Initial residual = 0.0772558, Final residual = 0.00533238, No Iterations 3
Pressure gradient source: uncorrected Ubar = 0.999983, pressure gradient = 0.00277427
GAMG:  Solving for p, Initial residual = 0.0392368, Final residual = 0.00389214, No Iterations 12
time step continuity errors : sum local = 1.73549e-06, global = 5.2193e-18, cumulative = -2.54619e-17
Pressure gradient source: uncorrected Ubar = 0.999999, pressure gradient = 0.0022753
smoothSolver:  Solving for omega, Initial residual = 0.000188256, Final residual = 1.26747e-05, No Iterations 5
smoothSolver:  Solving for k, Initial residual = 0.00608737, Final residual = 0.000420009, No Iterations 6
ExecutionTime = 0.136308 s  ClockTime = 0 s

Time = 56s

smoothSolver:  Solving for Ux, Initial residual = 0.00577028, Final residual = 0.000396559, No Iterations 6
smoothSolver:  Solving for Uy, Initial residual = 0.0648757, Final residual = 0.00448497, No Iterations 3
Pressure gradient source: uncorrected Ubar = 0.999986, pressure gradient = 0.00270886
GAMG:  Solving for p, Initial residual = 0.039065, Final residual = 0.00371569, No Iterations 11
time step continuity errors : sum local = 1.5152e-06, global = -9.679e-18, cumulative = -3.51409e-17
Pressure gradient source: uncorrected Ubar = 1, pressure gradient = 0.0022853
smoothSolver:  Solving for omega, Initial residual = 0.000185161, Final residual = 1.25598e-05, No Iterations 5
smoothSolver:  Solving for k, Initial residual = 0.00612356, Final residual = 0.00055794, No Iterations 5
ExecutionTime = 0.138615 s  ClockTime = 0 s

Time = 57s

smoothSolver:  Solving for Ux, Initial residual = 0.00575262, Final residual = 0.00039469, No Iterations 6
smoothSolver:  Solving for Uy, Initial residual = 0.092663, Final residual = 0.00776404, No Iterations 3
Pressure gradient source: uncorrected Ubar = 0.999985, pressure gradient = 0.00275323
GAMG:  Solving for p, Initial residual = 0.0452811, Final residual = 0.00422878, No Iterations 8
time step continuity errors : sum local = 1.48193e-06, global = -1.14319e-18, cumulative = -3.62841e-17
Pressure gradient source: uncorrected Ubar = 1, pressure gradient = 0.00230086
smoothSolver:  Solving for omega, Initial residual = 0.000179919, Final residual = 1.15589e-05, No Iterations 5
smoothSolver:  Solving for k, Initial residual = 0.00626611, Final residual = 0.000554547, No Iterations 5
ExecutionTime = 0.140731 s  ClockTime = 0 s

Time = 58s

smoothSolver:  Solving for Ux, Initial residual = 0.00573701, Final residual = 0.000393177, No Iterations 6
smoothSolver:  Solving for Uy, Initial residual = 0.0577539, Final residual = 0.00327553, No Iterations 3
Pressure gradient source: uncorrected Ubar = 0.999984, pressure gradient = 0.00278945
GAMG:  Solving for p, Initial residual = 0.0411919, Final residual = 0.00405223, No Iterations 9
time step continuity errors : sum local = 1.38232e-06, global = 5.81779e-18, cumulative = -3.04664e-17
Pressure gradient source: uncorrected Ubar = 0.999999, pressure gradient = 0.00231972
smoothSolver:  Solving for omega, Initial residual = 0.000180563, Final residual = 1.3918e-05, No Iterations 5
smoothSolver:  Solving for k, Initial residual = 0.0067745, Final residual = 0.00049729, No Iterations 6
ExecutionTime = 0.142935 s  ClockTime = 0 s

Time = 59s

smoothSolver:  Solving for Ux, Initial residual = 0.0057163, Final residual = 0.000391169, No Iterations 6
smoothSolver:  Solving for Uy, Initial residual = 0.0659626, Final residual = 0.00532405, No Iterations 3
Pressure gradient source: uncorrected Ubar = 0.999986, pressure gradient = 0.00277298
GAMG:  Solving for p, Initial residual = 0.0393571, Final residual = 0.00360914, No Iterations 7
time step continuity errors : sum local = 1.26285e-06, global = 1.05263e-19, cumulative = -3.03611e-17
Pressure gradient source: uncorrected Ubar = 1, pressure gradient = 0.00233241
smoothSolver:  Solving for omega, Initial residual = 0.000175306, Final residual = 1.2267e-05, No Iterations 5
smoothSolver:  Solving for k, Initial residual = 0.00691997, Final residual = 0.000458451, No Iterations 6
ExecutionTime = 0.145363 s  ClockTime = 0 s

Time = 60s

smoothSolver:  Solving for Ux, Initial residual = 0.00569576, Final residual = 0.000388841, No Iterations 6
smoothSolver:  Solving for Uy, Initial residual = 0.0660477, Final residual = 0.00620787, No Iterations 3
Pressure gradient source: uncorrected Ubar = 0.999988, pressure gradient = 0.00270833
GAMG:  Solving for p, Initial residual = 0.0391088, Final residual = 0.00384252, No Iterations 6
time step continuity errors : sum local = 1.28656e-06, global = 9.53146e-18, cumulative = -2.08296e-17
Pressure gradient source: uncorrected Ubar = 1, pressure gradient = 0.00233221
smoothSolver:  Solving for omega, Initial residual = 0.000169275, Final residual = 1.65362e-05, No Iterations 4
smoothSolver:  Solving for k, Initial residual = 0.00719998, Final residual = 0.000499925, No Iterations 6
ExecutionTime = 0.147607 s  ClockTime = 0 s

Time = 61s

smoothSolver:  Solving for Ux, Initial residual = 0.00568178, Final residual = 0.000387228, No Iterations 6
smoothSolver:  Solving for Uy, Initial residual = 0.0648931, Final residual = 0.00506075, No Iterations 3
Pressure gradient source: uncorrected Ubar = 0.999986, pressure gradient = 0.00278782
GAMG:  Solving for p, Initial residual = 0.0385014, Final residual = 0.00322831, No Iterations 10
time step continuity errors : sum local = 1.07543e-06, global = -3.95548e-18, cumulative = -2.47851e-17
Pressure gradient source: uncorrected Ubar = 1, pressure gradient = 0.00234533
smoothSolver:  Solving for omega, Initial residual = 0.00016949, Final residual = 1.28117e-05, No Iterations 5
smoothSolver:  Solving for k, Initial residual = 0.00705652, Final residual = 0.000617243, No Iterations 5
ExecutionTime = 0.149864 s  ClockTime = 0 s

Time = 62s

smoothSolver:  Solving for Ux, Initial residual = 0.00566759, Final residual = 0.000385926, No Iterations 6
smoothSolver:  Solving for Uy, Initial residual = 0.0511299, Final residual = 0.00379932, No Iterations 3
Pressure gradient source: uncorrected Ubar = 0.999985, pressure gradient = 0.00283719
GAMG:  Solving for p, Initial residual = 0.0349762, Final residual = 0.00310314, No Iterations 10
time step continuity errors : sum local = 9.95294e-07, global = 1.30269e-17, cumulative = -1.17582e-17
Pressure gradient source: uncorrected Ubar = 0.999999, pressure gradient = 0.0023645
smoothSolver:  Solving for omega, Initial residual = 0.000166984, Final residual = 1.30074e-05, No Iterations 5
smoothSolver:  Solving for k, Initial residual = 0.00743665, Final residual = 0.000499995, No Iterations 6
ExecutionTime = 0.152283 s  ClockTime = 0 s

Time = 63s

smoothSolver:  Solving for Ux, Initial residual = 0.00564703, Final residual = 0.000383822, No Iterations 6
smoothSolver:  Solving for Uy, Initial residual = 0.0487609, Final residual = 0.00434357, No Iterations 3
Pressure gradient source: uncorrected Ubar = 0.999988, pressure gradient = 0.00275788
GAMG:  Solving for p, Initial residual = 0.0342855, Final residual = 0.00332523, No Iterations 7
time step continuity errors : sum local = 1.04367e-06, global = 1.96776e-19, cumulative = -1.15615e-17
Pressure gradient source: uncorrected Ubar = 1, pressure gradient = 0.00236727
smoothSolver:  Solving for omega, Initial residual = 0.000161471, Final residual = 1.13999e-05, No Iterations 5
smoothSolver:  Solving for k, Initial residual = 0.00790269, Final residual = 0.000583221, No Iterations 6
ExecutionTime = 0.154502 s  ClockTime = 0 s

Time = 64s

smoothSolver:  Solving for Ux, Initial residual = 0.00563029, Final residual = 0.000382042, No Iterations 6
smoothSolver:  Solving for Uy, Initial residual = 0.0475264, Final residual = 0.00411613, No Iterations 3
Pressure gradient source: uncorrected Ubar = 0.999986, pressure gradient = 0.00282072
GAMG:  Solving for p, Initial residual = 0.0303796, Final residual = 0.00285192, No Iterations 9
time step continuity errors : sum local = 9.55768e-07, global = 1.52945e-18, cumulative = -1.0032e-17
Pressure gradient source: uncorrected Ubar = 1, pressure gradient = 0.00238012
smoothSolver:  Solving for omega, Initial residual = 0.000161841, Final residual = 1.36508e-05, No Iterations 5
smoothSolver:  Solving for k, Initial residual = 0.0077848, Final residual = 0.000508334, No Iterations 6
ExecutionTime = 0.156693 s  ClockTime = 0 s

Time = 65s

smoothSolver:  Solving for Ux, Initial residual = 0.00561047, Final residual = 0.000380073, No Iterations 6
smoothSolver:  Solving for Uy, Initial residual = 0.0477567, Final residual = 0.00301944, No Iterations 4
Pressure gradient source: uncorrected Ubar = 0.999987, pressure gradient = 0.00278586
GAMG:  Solving for p, Initial residual = 0.0298168, Final residual = 0.00212097, No Iterations 9
time step continuity errors : sum local = 6.72778e-07, global = -3.57275e-18, cumulative = -1.36048e-17
Pressure gradient source: uncorrected Ubar = 1, pressure gradient = 0.00238499
smoothSolver:  Solving for omega, Initial residual = 0.000157215, Final residual = 1.21732e-05, No Iterations 5
smoothSolver:  Solving for k, Initial residual = 0.00813177, Final residual = 0.000581788, No Iterations 6
ExecutionTime = 0.158918 s  ClockTime = 0 s

Time = 66s

smoothSolver:  Solving for Ux, Initial residual = 0.00558751, Final residual = 0.00037776, No Iterations 6
smoothSolver:  Solving for Uy, Initial residual = 0.0683646, Final residual = 0.0038005, No Iterations 4
Pressure gradient source: uncorrected Ubar = 0.999988, pressure gradient = 0.0027746
GAMG:  Solving for p, Initial residual = 0.0392756, Final residual = 0.00375461, No Iterations 4
time step continuity errors : sum local = 1.04262e-06, global = -1.70839e-18, cumulative = -1.53132e-17
Pressure gradient source: uncorrected Ubar = 1, pressure gradient = 0.00238729
smoothSolver:  Solving for omega, Initial residual = 0.000151294, Final residual = 9.98853e-06, No Iterations 5
smoothSolver:  Solving for k, Initial residual = 0.00810534, Final residual = 0.000757091, No Iterations 5
ExecutionTime = 0.160951 s  ClockTime = 0 s

Time = 67s

smoothSolver:  Solving for Ux, Initial residual = 0.00557311, Final residual = 0.000376132, No Iterations 6
smoothSolver:  Solving for Uy, Initial residual = 0.0491562, Final residual = 0.0031809, No Iterations 4
Pressure gradient source: uncorrected Ubar = 0.999987, pressure gradient = 0.00281456
GAMG:  Solving for p, Initial residual = 0.0332129, Final residual = 0.00324286, No Iterations 6
time step continuity errors : sum local = 1.05558e-06, global = -6.55599e-18, cumulative = -2.18691e-17
Pressure gradient source: uncorrected Ubar = 1, pressure gradient = 0.00239618
smoothSolver:  Solving for omega, Initial residual = 0.000150043, Final residual = 1.01008e-05, No Iterations 5
smoothSolver:  Solving for k, Initial residual = 0.00879959, Final residual = 0.000697208, No Iterations 6
ExecutionTime = 0.163028 s  ClockTime = 0 s

Time = 68s

smoothSolver:  Solving for Ux, Initial residual = 0.00555253, Final residual = 0.000373905, No Iterations 6
smoothSolver:  Solving for Uy, Initial residual = 0.0599212, Final residual = 0.00471851, No Iterations 4
Pressure gradient source: uncorrected Ubar = 0.999988, pressure gradient = 0.00280073
GAMG:  Solving for p, Initial residual = 0.0244258, Final residual = 0.00215917, No Iterations 9
time step continuity errors : sum local = 8.9464e-07, global = 4.35168e-18, cumulative = -1.75175e-17
Pressure gradient source: uncorrected Ubar = 1, pressure gradient = 0.00240144
smoothSolver:  Solving for omega, Initial residual = 0.000148266, Final residual = 1.02502e-05, No Iterations 5
smoothSolver:  Solving for k, Initial residual = 0.00864414, Final residual = 0.000841401, No Iterations 5
ExecutionTime = 0.165199 s  ClockTime = 0 s

Time = 69s

smoothSolver:  Solving for Ux, Initial residual = 0.00553154, Final residual = 0.000371519, No Iterations 6
smoothSolver:  Solving for Uy, Initial residual = 0.0430551, Final residual = 0.00252482, No Iterations 4
Pressure gradient source: uncorrected Ubar = 0.999988, pressure gradient = 0.00278027
GAMG:  Solving for p, Initial residual = 0.0208243, Final residual = 0.0019838, No Iterations 9
time step continuity errors : sum local = 6.65063e-07, global = 7.85937e-19, cumulative = -1.67315e-17
Pressure gradient source: uncorrected Ubar = 1, pressure gradient = 0.00240263
smoothSolver:  Solving for omega, Initial residual = 0.000146088, Final residual = 1.11977e-05, No Iterations 5
smoothSolver:  Solving for k, Initial residual = 0.00892386, Final residual = 0.000607737, No Iterations 6
ExecutionTime = 0.167643 s  ClockTime = 0 s

Time = 70s

smoothSolver:  Solving for Ux, Initial residual = 0.00551126, Final residual = 0.000369101, No Iterations 6
smoothSolver:  Solving for Uy, Initial residual = 0.0538709, Final residual = 0.00295177, No Iterations 4
Pressure gradient source: uncorrected Ubar = 0.999988, pressure gradient = 0.00278678
GAMG:  Solving for p, Initial residual = 0.0324545, Final residual = 0.00320895, No Iterations 8
time step continuity errors : sum local = 9.58277e-07, global = 4.69838e-18, cumulative = -1.20332e-17
Pressure gradient source: uncorrected Ubar = 1, pressure gradient = 0.00240499
smoothSolver:  Solving for omega, Initial residual = 0.000142782, Final residual = 1.09937e-05, No Iterations 5
smoothSolver:  Solving for k, Initial residual = 0.00905701, Final residual = 0.000860972, No Iterations 5
ExecutionTime = 0.169942 s  ClockTime = 0 s

Time = 71s

smoothSolver:  Solving for Ux, Initial residual = 0.00549296, Final residual = 0.00036703, No Iterations 6
smoothSolver:  Solving for Uy, Initial residual = 0.0410069, Final residual = 0.0033595, No Iterations 3
Pressure gradient source: uncorrected Ubar = 0.999987, pressure gradient = 0.00283562
GAMG:  Solving for p, Initial residual = 0.0273778, Final residual = 0.00258736, No Iterations 10
time step continuity errors : sum local = 8.7419e-07, global = 1.59061e-18, cumulative = -1.04425e-17
Pressure gradient source: uncorrected Ubar = 1, pressure gradient = 0.00241547
smoothSolver:  Solving for omega, Initial residual = 0.000141399, Final residual = 1.16531e-05, No Iterations 5
smoothSolver:  Solving for k, Initial residual = 0.00929098, Final residual = 0.00088648, No Iterations 5
ExecutionTime = 0.172199 s  ClockTime = 0 s

Time = 72s

smoothSolver:  Solving for Ux, Initial residual = 0.0054706, Final residual = 0.000364694, No Iterations 6
smoothSolver:  Solving for Uy, Initial residual = 0.0506194, Final residual = 0.00420338, No Iterations 4
Pressure gradient source: uncorrected Ubar = 0.999988, pressure gradient = 0.00280354
GAMG:  Solving for p, Initial residual = 0.0266307, Final residual = 0.00233538, No Iterations 9
time step continuity errors : sum local = 8.02681e-07, global = 1.30931e-17, cumulative = 2.65052e-18
Pressure gradient source: uncorrected Ubar = 1, pressure gradient = 0.00241908
smoothSolver:  Solving for omega, Initial residual = 0.000136959, Final residual = 8.95676e-06, No Iterations 5
smoothSolver:  Solving for k, Initial residual = 0.00980882, Final residual = 0.000680319, No Iterations 6
ExecutionTime = 0.174419 s  ClockTime = 0 s

Time = 73s

smoothSolver:  Solving for Ux, Initial residual = 0.00544655, Final residual = 0.00036184, No Iterations 6
smoothSolver:  Solving for Uy, Initial residual = 0.0479365, Final residual = 0.00289298, No Iterations 4
Pressure gradient source: uncorrected Ubar = 0.999989, pressure gradient = 0.00276971
GAMG:  Solving for p, Initial residual = 0.0325657, Final residual = 0.00281551, No Iterations 6
time step continuity errors : sum local = 8.2762e-07, global = -7.51398e-18, cumulative = -4.86347e-18
Pressure gradient source: uncorrected Ubar = 1, pressure gradient = 0.00241673
smoothSolver:  Solving for omega, Initial residual = 0.000134397, Final residual = 9.65135e-06, No Iterations 5
smoothSolver:  Solving for k, Initial residual = 0.00996131, Final residual = 0.000995203, No Iterations 5
ExecutionTime = 0.176483 s  ClockTime = 0 s

Time = 74s

smoothSolver:  Solving for Ux, Initial residual = 0.00542367, Final residual = 0.000359487, No Iterations 6
smoothSolver:  Solving for Uy, Initial residual = 0.0634292, Final residual = 0.00383313, No Iterations 4
Pressure gradient source: uncorrected Ubar = 0.999988, pressure gradient = 0.00282442
GAMG:  Solving for p, Initial residual = 0.0329114, Final residual = 0.00275224, No Iterations 4
time step continuity errors : sum local = 8.32385e-07, global = -2.53475e-18, cumulative = -7.39821e-18
Pressure gradient source: uncorrected Ubar = 1, pressure gradient = 0.0024244
smoothSolver:  Solving for omega, Initial residual = 0.00013301, Final residual = 1.02517e-05, No Iterations 5
smoothSolver:  Solving for k, Initial residual = 0.0102508, Final residual = 0.000683219, No Iterations 6
ExecutionTime = 0.178495 s  ClockTime = 0 s

Time = 75s

smoothSolver:  Solving for Ux, Initial residual = 0.00539935, Final residual = 0.000356845, No Iterations 6
smoothSolver:  Solving for Uy, Initial residual = 0.0502112, Final residual = 0.00316577, No Iterations 4
Pressure gradient source: uncorrected Ubar = 0.999989, pressure gradient = 0.00280616
GAMG:  Solving for p, Initial residual = 0.0247596, Final residual = 0.00217869, No Iterations 7
time step continuity errors : sum local = 7.40964e-07, global = 4.47091e-18, cumulative = -2.92731e-18
Pressure gradient source: uncorrected Ubar = 1, pressure gradient = 0.00242813
smoothSolver:  Solving for omega, Initial residual = 0.000130585, Final residual = 1.00242e-05, No Iterations 5
smoothSolver:  Solving for k, Initial residual = 0.0106207, Final residual = 0.000713165, No Iterations 6
ExecutionTime = 0.180564 s  ClockTime = 0 s

Time = 76s

smoothSolver:  Solving for Ux, Initial residual = 0.00537087, Final residual = 0.000536335, No Iterations 5
smoothSolver:  Solving for Uy, Initial residual = 0.0620465, Final residual = 0.00450499, No Iterations 4
Pressure gradient source: uncorrected Ubar = 0.999981, pressure gradient = 0.00307359
GAMG:  Solving for p, Initial residual = 0.0303396, Final residual = 0.00258788, No Iterations 3
time step continuity errors : sum local = 7.77342e-07, global = -2.78305e-18, cumulative = -5.71036e-18
Pressure gradient source: uncorrected Ubar = 0.999999, pressure gradient = 0.00245958
smoothSolver:  Solving for omega, Initial residual = 0.000127374, Final residual = 1.11914e-05, No Iterations 5
smoothSolver:  Solving for k, Initial residual = 0.0107641, Final residual = 0.000711394, No Iterations 6
ExecutionTime = 0.182624 s  ClockTime = 0 s

Time = 77s

smoothSolver:  Solving for Ux, Initial residual = 0.00533715, Final residual = 0.00053216, No Iterations 5
smoothSolver:  Solving for Uy, Initial residual = 0.0455622, Final residual = 0.00403767, No Iterations 4
Pressure gradient source: uncorrected Ubar = 0.999985, pressure gradient = 0.00295001
GAMG:  Solving for p, Initial residual = 0.0192615, Final residual = 0.00144356, No Iterations 4
time step continuity errors : sum local = 4.7442e-07, global = -9.87398e-18, cumulative = -1.55843e-17
Pressure gradient source: uncorrected Ubar = 1, pressure gradient = 0.00246458
smoothSolver:  Solving for omega, Initial residual = 0.000124447, Final residual = 9.72676e-06, No Iterations 5
smoothSolver:  Solving for k, Initial residual = 0.0111195, Final residual = 0.000808084, No Iterations 6
ExecutionTime = 0.184823 s  ClockTime = 0 s

Time = 78s

smoothSolver:  Solving for Ux, Initial residual = 0.00530723, Final residual = 0.000528559, No Iterations 5
smoothSolver:  Solving for Uy, Initial residual = 0.0508075, Final residual = 0.00391112, No Iterations 4
Pressure gradient source: uncorrected Ubar = 0.999984, pressure gradient = 0.00299355
GAMG:  Solving for p, Initial residual = 0.0285164, Final residual = 0.00231912, No Iterations 4
time step continuity errors : sum local = 7.70678e-07, global = 5.76421e-18, cumulative = -9.82013e-18
Pressure gradient source: uncorrected Ubar = 1, pressure gradient = 0.00247682
smoothSolver:  Solving for omega, Initial residual = 0.000119702, Final residual = 8.30294e-06, No Iterations 5
smoothSolver:  Solving for k, Initial residual = 0.0113284, Final residual = 0.000789049, No Iterations 6
ExecutionTime = 0.186948 s  ClockTime = 0 s

Time = 79s

smoothSolver:  Solving for Ux, Initial residual = 0.00527632, Final residual = 0.000524832, No Iterations 5
smoothSolver:  Solving for Uy, Initial residual = 0.0534201, Final residual = 0.0041226, No Iterations 4
Pressure gradient source: uncorrected Ubar = 0.999985, pressure gradient = 0.0029751
GAMG:  Solving for p, Initial residual = 0.0228973, Final residual = 0.00204138, No Iterations 4
time step continuity errors : sum local = 7.13596e-07, global = -1.70225e-18, cumulative = -1.15224e-17
Pressure gradient source: uncorrected Ubar = 1, pressure gradient = 0.00248443
smoothSolver:  Solving for omega, Initial residual = 0.0001207, Final residual = 9.70465e-06, No Iterations 5
smoothSolver:  Solving for k, Initial residual = 0.0113014, Final residual = 0.000725027, No Iterations 6
ExecutionTime = 0.189014 s  ClockTime = 0 s

Time = 80s

smoothSolver:  Solving for Ux, Initial residual = 0.00524755, Final residual = 0.00052055, No Iterations 5
smoothSolver:  Solving for Uy, Initial residual = 0.0510349, Final residual = 0.00353103, No Iterations 4
Pressure gradient source: uncorrected Ubar = 0.999985, pressure gradient = 0.0029891
GAMG:  Solving for p, Initial residual = 0.0286893, Final residual = 0.00237908, No Iterations 4
time step continuity errors : sum local = 8.88349e-07, global = -4.44162e-18, cumulative = -1.5964e-17
Pressure gradient source: uncorrected Ubar = 1, pressure gradient = 0.00249368
smoothSolver:  Solving for omega, Initial residual = 0.000116437, Final residual = 8.79012e-06, No Iterations 5
smoothSolver:  Solving for k, Initial residual = 0.0117974, Final residual = 0.000828078, No Iterations 6
ExecutionTime = 0.191016 s  ClockTime = 0 s

Time = 81s

smoothSolver:  Solving for Ux, Initial residual = 0.00520885, Final residual = 0.000515552, No Iterations 5
smoothSolver:  Solving for Uy, Initial residual = 0.0383353, Final residual = 0.00299993, No Iterations 4
Pressure gradient source: uncorrected Ubar = 0.999986, pressure gradient = 0.00297943
GAMG:  Solving for p, Initial residual = 0.0151146, Final residual = 0.00132766, No Iterations 9
time step continuity errors : sum local = 5.91549e-07, global = -1.73397e-19, cumulative = -1.61374e-17
Pressure gradient source: uncorrected Ubar = 1, pressure gradient = 0.00250036
smoothSolver:  Solving for omega, Initial residual = 0.00011629, Final residual = 9.84649e-06, No Iterations 5
smoothSolver:  Solving for k, Initial residual = 0.011989, Final residual = 0.000836293, No Iterations 6
ExecutionTime = 0.193112 s  ClockTime = 0 s

Time = 82s

smoothSolver:  Solving for Ux, Initial residual = 0.00516763, Final residual = 0.00051089, No Iterations 5
smoothSolver:  Solving for Uy, Initial residual = 0.0369581, Final residual = 0.00316239, No Iterations 4
Pressure gradient source: uncorrected Ubar = 0.999987, pressure gradient = 0.00295266
GAMG:  Solving for p, Initial residual = 0.0172085, Final residual = 0.0015838, No Iterations 15
time step continuity errors : sum local = 6.78647e-07, global = 5.30031e-19, cumulative = -1.56074e-17
Pressure gradient source: uncorrected Ubar = 1, pressure gradient = 0.00250201
smoothSolver:  Solving for omega, Initial residual = 0.00011377, Final residual = 9.08406e-06, No Iterations 5
smoothSolver:  Solving for k, Initial residual = 0.0121314, Final residual = 0.000835857, No Iterations 6
ExecutionTime = 0.195397 s  ClockTime = 0 s

Time = 83s

smoothSolver:  Solving for Ux, Initial residual = 0.00512729, Final residual = 0.000505564, No Iterations 5
smoothSolver:  Solving for Uy, Initial residual = 0.0420589, Final residual = 0.00240707, No Iterations 4
Pressure gradient source: uncorrected Ubar = 0.999987, pressure gradient = 0.00296037
GAMG:  Solving for p, Initial residual = 0.0236749, Final residual = 0.00151271, No Iterations 4
time step continuity errors : sum local = 6.99789e-07, global = -9.58457e-19, cumulative = -1.65658e-17
Pressure gradient source: uncorrected Ubar = 1, pressure gradient = 0.00250532
smoothSolver:  Solving for omega, Initial residual = 0.000110325, Final residual = 7.91358e-06, No Iterations 5
smoothSolver:  Solving for k, Initial residual = 0.0122845, Final residual = 0.000786525, No Iterations 6
ExecutionTime = 0.197413 s  ClockTime = 0 s

Time = 84s

smoothSolver:  Solving for Ux, Initial residual = 0.00509107, Final residual = 0.000499986, No Iterations 5
smoothSolver:  Solving for Uy, Initial residual = 0.0371437, Final residual = 0.00219794, No Iterations 4
Pressure gradient source: uncorrected Ubar = 0.999986, pressure gradient = 0.00297787
GAMG:  Solving for p, Initial residual = 0.0203417, Final residual = 0.00131153, No Iterations 3
time step continuity errors : sum local = 5.72645e-07, global = 5.25121e-19, cumulative = -1.60407e-17
Pressure gradient source: uncorrected Ubar = 1, pressure gradient = 0.00251179
smoothSolver:  Solving for omega, Initial residual = 0.000108541, Final residual = 8.47359e-06, No Iterations 5
smoothSolver:  Solving for k, Initial residual = 0.0127493, Final residual = 0.000875598, No Iterations 6
ExecutionTime = 0.19947 s  ClockTime = 0 s

Time = 85s

smoothSolver:  Solving for Ux, Initial residual = 0.00500962, Final residual = 0.000492975, No Iterations 5
smoothSolver:  Solving for Uy, Initial residual = 0.0529095, Final residual = 0.00386625, No Iterations 4
Pressure gradient source: uncorrected Ubar = 0.999987, pressure gradient = 0.00295682
GAMG:  Solving for p, Initial residual = 0.0184151, Final residual = 0.00164434, No Iterations 3
time step continuity errors : sum local = 8.07507e-07, global = -6.62936e-18, cumulative = -2.267e-17
Pressure gradient source: uncorrected Ubar = 1, pressure gradient = 0.00251427
smoothSolver:  Solving for omega, Initial residual = 0.000107824, Final residual = 9.0917e-06, No Iterations 5
smoothSolver:  Solving for k, Initial residual = 0.0129777, Final residual = 0.000891412, No Iterations 6
ExecutionTime = 0.20165 s  ClockTime = 0 s

Time = 86s

smoothSolver:  Solving for Ux, Initial residual = 0.00491525, Final residual = 0.000484161, No Iterations 5
smoothSolver:  Solving for Uy, Initial residual = 0.0375225, Final residual = 0.00232298, No Iterations 4
Pressure gradient source: uncorrected Ubar = 0.999988, pressure gradient = 0.00291294
GAMG:  Solving for p, Initial residual = 0.0142574, Final residual = 0.0012106, No Iterations 3
time step continuity errors : sum local = 5.60606e-07, global = 2.66405e-18, cumulative = -2.0006e-17
Pressure gradient source: uncorrected Ubar = 1, pressure gradient = 0.00250948
smoothSolver:  Solving for omega, Initial residual = 0.000105719, Final residual = 9.40369e-06, No Iterations 5
smoothSolver:  Solving for k, Initial residual = 0.0130967, Final residual = 0.000884053, No Iterations 6
ExecutionTime = 0.203753 s  ClockTime = 0 s

Time = 87s

smoothSolver:  Solving for Ux, Initial residual = 0.00484494, Final residual = 0.000476793, No Iterations 5
smoothSolver:  Solving for Uy, Initial residual = 0.0348886, Final residual = 0.0022959, No Iterations 4
Pressure gradient source: uncorrected Ubar = 0.999987, pressure gradient = 0.00297002
GAMG:  Solving for p, Initial residual = 0.014477, Final residual = 0.00115296, No Iterations 4
time step continuity errors : sum local = 5.74557e-07, global = -6.14575e-18, cumulative = -2.61518e-17
Pressure gradient source: uncorrected Ubar = 1, pressure gradient = 0.00251611
smoothSolver:  Solving for omega, Initial residual = 0.000103877, Final residual = 8.93792e-06, No Iterations 5
smoothSolver:  Solving for k, Initial residual = 0.0137978, Final residual = 0.00103032, No Iterations 6
ExecutionTime = 0.205825 s  ClockTime = 0 s

Time = 88s

smoothSolver:  Solving for Ux, Initial residual = 0.00476019, Final residual = 0.000467715, No Iterations 5
smoothSolver:  Solving for Uy, Initial residual = 0.0366103, Final residual = 0.00277731, No Iterations 4
Pressure gradient source: uncorrected Ubar = 0.999989, pressure gradient = 0.00288167
GAMG:  Solving for p, Initial residual = 0.0135946, Final residual = 0.00117173, No Iterations 8
time step continuity errors : sum local = 5.8674e-07, global = 8.05887e-18, cumulative = -1.80929e-17
Pressure gradient source: uncorrected Ubar = 1, pressure gradient = 0.0025068
smoothSolver:  Solving for omega, Initial residual = 0.00010231, Final residual = 8.34181e-06, No Iterations 5
smoothSolver:  Solving for k, Initial residual = 0.0140919, Final residual = 0.00107681, No Iterations 6
ExecutionTime = 0.207916 s  ClockTime = 0 s

Time = 89s

smoothSolver:  Solving for Ux, Initial residual = 0.00469248, Final residual = 0.000459176, No Iterations 5
smoothSolver:  Solving for Uy, Initial residual = 0.0333232, Final residual = 0.00258907, No Iterations 4
Pressure gradient source: uncorrected Ubar = 0.999989, pressure gradient = 0.00287472
[...]
Pressure gradient source: uncorrected Ubar = 1, pressure gradient = 0.00286813
smoothSolver:  Solving for omega, Initial residual = 8.34864e-06, Final residual = 8.34864e-06, No Iterations 0
smoothSolver:  Solving for k, Initial residual = 6.86376e-05, Final residual = 6.81256e-06, No Iterations 5
ExecutionTime = 1.09053 s  ClockTime = 1 s

Time = 500s

smoothSolver:  Solving for Ux, Initial residual = 9.30546e-06, Final residual = 9.30546e-06, No Iterations 0
smoothSolver:  Solving for Uy, Initial residual = 0.0600454, Final residual = 0.00568828, No Iterations 3
Pressure gradient source: uncorrected Ubar = 1, pressure gradient = 0.00286813
GAMG:  Solving for p, Initial residual = 0.00594854, Final residual = 0.000409114, No Iterations 10
time step continuity errors : sum local = 3.8219e-09, global = 4.40221e-18, cumulative = 1.11457e-16
Pressure gradient source: uncorrected Ubar = 1, pressure gradient = 0.00286818
smoothSolver:  Solving for omega, Initial residual = 8.34967e-06, Final residual = 8.34967e-06, No Iterations 0
smoothSolver:  Solving for k, Initial residual = 7.08039e-05, Final residual = 8.59081e-06, No Iterations 5
ExecutionTime = 1.0926 s  ClockTime = 1 s

Time = 501s

smoothSolver:  Solving for Ux, Initial residual = 9.04493e-06, Final residual = 9.04493e-06, No Iterations 0
smoothSolver:  Solving for Uy, Initial residual = 0.0706272, Final residual = 0.00350071, No Iterations 4
Pressure gradient source: uncorrected Ubar = 1, pressure gradient = 0.00286818
GAMG:  Solving for p, Initial residual = 0.00573812, Final residual = 0.00049687, No Iterations 8
time step continuity errors : sum local = 4.17731e-09, global = -5.47471e-18, cumulative = 1.05982e-16
Pressure gradient source: uncorrected Ubar = 1, pressure gradient = 0.00286821
smoothSolver:  Solving for omega, Initial residual = 8.35044e-06, Final residual = 8.35044e-06, No Iterations 0
smoothSolver:  Solving for k, Initial residual = 6.5811e-05, Final residual = 9.30276e-06, No Iterations 4
ExecutionTime = 1.09517 s  ClockTime = 1 s

Time = 502s

smoothSolver:  Solving for Ux, Initial residual = 8.81405e-06, Final residual = 8.81405e-06, No Iterations 0
smoothSolver:  Solving for Uy, Initial residual = 0.0760761, Final residual = 0.00678337, No Iterations 3
Pressure gradient source: uncorrected Ubar = 1, pressure gradient = 0.00286821
GAMG:  Solving for p, Initial residual = 0.00544388, Final residual = 0.000531084, No Iterations 10
time step continuity errors : sum local = 4.17164e-09, global = -3.45093e-18, cumulative = 1.02531e-16
Pressure gradient source: uncorrected Ubar = 1, pressure gradient = 0.00286823
smoothSolver:  Solving for omega, Initial residual = 8.35174e-06, Final residual = 8.35174e-06, No Iterations 0
smoothSolver:  Solving for k, Initial residual = 6.49554e-05, Final residual = 9.15732e-06, No Iterations 4
ExecutionTime = 1.09742 s  ClockTime = 1 s

Time = 503s

smoothSolver:  Solving for Ux, Initial residual = 8.57273e-06, Final residual = 8.57273e-06, No Iterations 0
smoothSolver:  Solving for Uy, Initial residual = 0.0700241, Final residual = 0.0034463, No Iterations 4
Pressure gradient source: uncorrected Ubar = 1, pressure gradient = 0.00286823
GAMG:  Solving for p, Initial residual = 0.00467233, Final residual = 0.000463562, No Iterations 13
time step continuity errors : sum local = 3.73609e-09, global = 1.72015e-18, cumulative = 1.04252e-16
Pressure gradient source: uncorrected Ubar = 1, pressure gradient = 0.00286826
smoothSolver:  Solving for omega, Initial residual = 8.35304e-06, Final residual = 8.35304e-06, No Iterations 0
smoothSolver:  Solving for k, Initial residual = 6.65608e-05, Final residual = 7.19537e-06, No Iterations 5
ExecutionTime = 1.09996 s  ClockTime = 1 s

Time = 504s

smoothSolver:  Solving for Ux, Initial residual = 8.37131e-06, Final residual = 8.37131e-06, No Iterations 0
smoothSolver:  Solving for Uy, Initial residual = 0.0839796, Final residual = 0.00425485, No Iterations 4
Pressure gradient source: uncorrected Ubar = 1, pressure gradient = 0.00286826
GAMG:  Solving for p, Initial residual = 0.00581665, Final residual = 0.000458538, No Iterations 10
time step continuity errors : sum local = 3.34219e-09, global = 4.43121e-18, cumulative = 1.08683e-16
Pressure gradient source: uncorrected Ubar = 1, pressure gradient = 0.00286827
smoothSolver:  Solving for omega, Initial residual = 8.35346e-06, Final residual = 8.35346e-06, No Iterations 0
smoothSolver:  Solving for k, Initial residual = 6.39478e-05, Final residual = 8.62406e-06, No Iterations 4
ExecutionTime = 1.10248 s  ClockTime = 1 s

Time = 505s

smoothSolver:  Solving for Ux, Initial residual = 8.18689e-06, Final residual = 8.18689e-06, No Iterations 0
smoothSolver:  Solving for Uy, Initial residual = 0.0806882, Final residual = 0.0075898, No Iterations 3
Pressure gradient source: uncorrected Ubar = 1, pressure gradient = 0.00286827
GAMG:  Solving for p, Initial residual = 0.00459757, Final residual = 0.000423416, No Iterations 17
time step continuity errors : sum local = 3.01502e-09, global = 4.88192e-18, cumulative = 1.13565e-16
Pressure gradient source: uncorrected Ubar = 1, pressure gradient = 0.00286829
smoothSolver:  Solving for omega, Initial residual = 8.35408e-06, Final residual = 8.35408e-06, No Iterations 0
smoothSolver:  Solving for k, Initial residual = 6.81031e-05, Final residual = 6.87739e-06, No Iterations 5
ExecutionTime = 1.10492 s  ClockTime = 1 s

Time = 506s

smoothSolver:  Solving for Ux, Initial residual = 7.97684e-06, Final residual = 7.97684e-06, No Iterations 0
smoothSolver:  Solving for Uy, Initial residual = 0.0725224, Final residual = 0.00679097, No Iterations 3
Pressure gradient source: uncorrected Ubar = 1, pressure gradient = 0.00286829
GAMG:  Solving for p, Initial residual = 0.00436149, Final residual = 0.000431628, No Iterations 15
time step continuity errors : sum local = 2.80662e-09, global = -7.49447e-18, cumulative = 1.0607e-16
Pressure gradient source: uncorrected Ubar = 1, pressure gradient = 0.0028683
smoothSolver:  Solving for omega, Initial residual = 8.35417e-06, Final residual = 8.35417e-06, No Iterations 0
smoothSolver:  Solving for k, Initial residual = 6.72062e-05, Final residual = 7.64149e-06, No Iterations 5
ExecutionTime = 1.1072 s  ClockTime = 1 s

Time = 507s

smoothSolver:  Solving for Ux, Initial residual = 7.74379e-06, Final residual = 7.74379e-06, No Iterations 0
smoothSolver:  Solving for Uy, Initial residual = 0.0722575, Final residual = 0.00670774, No Iterations 3
Pressure gradient source: uncorrected Ubar = 1, pressure gradient = 0.0028683
GAMG:  Solving for p, Initial residual = 0.00394397, Final residual = 0.000349633, No Iterations 16
time step continuity errors : sum local = 2.99274e-09, global = -2.52104e-19, cumulative = 1.05818e-16
Pressure gradient source: uncorrected Ubar = 1, pressure gradient = 0.00286831
smoothSolver:  Solving for omega, Initial residual = 8.35405e-06, Final residual = 8.35405e-06, No Iterations 0
smoothSolver:  Solving for k, Initial residual = 6.62293e-05, Final residual = 9.92373e-06, No Iterations 4
ExecutionTime = 1.10946 s  ClockTime = 1 s

Time = 508s

smoothSolver:  Solving for Ux, Initial residual = 7.56988e-06, Final residual = 7.56988e-06, No Iterations 0
smoothSolver:  Solving for Uy, Initial residual = 0.0752288, Final residual = 0.0041777, No Iterations 4
Pressure gradient source: uncorrected Ubar = 1, pressure gradient = 0.00286831
GAMG:  Solving for p, Initial residual = 0.00466603, Final residual = 0.000336662, No Iterations 17
time step continuity errors : sum local = 2.52517e-09, global = -2.81655e-18, cumulative = 1.03002e-16
Pressure gradient source: uncorrected Ubar = 1, pressure gradient = 0.00286832
smoothSolver:  Solving for omega, Initial residual = 8.35322e-06, Final residual = 8.35322e-06, No Iterations 0
smoothSolver:  Solving for k, Initial residual = 6.30848e-05, Final residual = 8.48729e-06, No Iterations 4
ExecutionTime = 1.11174 s  ClockTime = 1 s

Time = 509s

smoothSolver:  Solving for Ux, Initial residual = 7.40689e-06, Final residual = 7.40689e-06, No Iterations 0
smoothSolver:  Solving for Uy, Initial residual = 0.0283936, Final residual = 0.00146576, No Iterations 4
Pressure gradient source: uncorrected Ubar = 1, pressure gradient = 0.00286832
GAMG:  Solving for p, Initial residual = 0.0039416, Final residual = 0.000380153, No Iterations 19
time step continuity errors : sum local = 2.62746e-09, global = 8.98894e-18, cumulative = 1.11991e-16
Pressure gradient source: uncorrected Ubar = 1, pressure gradient = 0.00286833
smoothSolver:  Solving for omega, Initial residual = 8.35183e-06, Final residual = 8.35183e-06, No Iterations 0
smoothSolver:  Solving for k, Initial residual = 6.36135e-05, Final residual = 9.63324e-06, No Iterations 4
ExecutionTime = 1.11408 s  ClockTime = 1 s

Time = 510s

smoothSolver:  Solving for Ux, Initial residual = 7.24809e-06, Final residual = 7.24809e-06, No Iterations 0
smoothSolver:  Solving for Uy, Initial residual = 0.0465243, Final residual = 0.00444587, No Iterations 3
Pressure gradient source: uncorrected Ubar = 1, pressure gradient = 0.00286833
GAMG:  Solving for p, Initial residual = 0.00329259, Final residual = 0.000326708, No Iterations 19
time step continuity errors : sum local = 2.14224e-09, global = -1.19238e-18, cumulative = 1.10798e-16
Pressure gradient source: uncorrected Ubar = 1, pressure gradient = 0.00286833
smoothSolver:  Solving for omega, Initial residual = 8.34986e-06, Final residual = 8.34986e-06, No Iterations 0
smoothSolver:  Solving for k, Initial residual = 6.58407e-05, Final residual = 6.7777e-06, No Iterations 5
ExecutionTime = 1.11653 s  ClockTime = 1 s

Time = 511s

smoothSolver:  Solving for Ux, Initial residual = 7.04895e-06, Final residual = 7.04895e-06, No Iterations 0
smoothSolver:  Solving for Uy, Initial residual = 0.047287, Final residual = 0.00245615, No Iterations 4
Pressure gradient source: uncorrected Ubar = 1, pressure gradient = 0.00286833
GAMG:  Solving for p, Initial residual = 0.00366484, Final residual = 0.000318366, No Iterations 15
time step continuity errors : sum local = 2.52633e-09, global = -3.14385e-18, cumulative = 1.07654e-16
Pressure gradient source: uncorrected Ubar = 1, pressure gradient = 0.00286833
smoothSolver:  Solving for omega, Initial residual = 8.34746e-06, Final residual = 8.34746e-06, No Iterations 0
smoothSolver:  Solving for k, Initial residual = 6.22216e-05, Final residual = 8.57568e-06, No Iterations 4
ExecutionTime = 1.11905 s  ClockTime = 1 s

Time = 512s

smoothSolver:  Solving for Ux, Initial residual = 6.87277e-06, Final residual = 6.87277e-06, No Iterations 0
smoothSolver:  Solving for Uy, Initial residual = 0.0359568, Final residual = 0.00175106, No Iterations 4
Pressure gradient source: uncorrected Ubar = 1, pressure gradient = 0.00286833
GAMG:  Solving for p, Initial residual = 0.00349815, Final residual = 0.000276951, No Iterations 19
time step continuity errors : sum local = 2.50679e-09, global = 4.20349e-18, cumulative = 1.11858e-16
Pressure gradient source: uncorrected Ubar = 1, pressure gradient = 0.00286833
smoothSolver:  Solving for omega, Initial residual = 8.34466e-06, Final residual = 8.34466e-06, No Iterations 0
smoothSolver:  Solving for k, Initial residual = 6.82054e-05, Final residual = 8.1495e-06, No Iterations 5
ExecutionTime = 1.12155 s  ClockTime = 1 s

Time = 513s

smoothSolver:  Solving for Ux, Initial residual = 6.69428e-06, Final residual = 6.69428e-06, No Iterations 0
smoothSolver:  Solving for Uy, Initial residual = 0.0274639, Final residual = 0.00260551, No Iterations 3
Pressure gradient source: uncorrected Ubar = 1, pressure gradient = 0.00286833
GAMG:  Solving for p, Initial residual = 0.00262071, Final residual = 0.000225056, No Iterations 17
time step continuity errors : sum local = 1.54572e-09, global = 8.48035e-18, cumulative = 1.20338e-16
Pressure gradient source: uncorrected Ubar = 1, pressure gradient = 0.00286833
smoothSolver:  Solving for omega, Initial residual = 8.34038e-06, Final residual = 8.34038e-06, No Iterations 0
smoothSolver:  Solving for k, Initial residual = 6.26395e-05, Final residual = 8.72267e-06, No Iterations 4
ExecutionTime = 1.12383 s  ClockTime = 1 s

Time = 514s

smoothSolver:  Solving for Ux, Initial residual = 6.58215e-06, Final residual = 6.58215e-06, No Iterations 0
smoothSolver:  Solving for Uy, Initial residual = 0.0393693, Final residual = 0.0019645, No Iterations 4
Pressure gradient source: uncorrected Ubar = 1, pressure gradient = 0.00286833
GAMG:  Solving for p, Initial residual = 0.0033894, Final residual = 0.000265328, No Iterations 15
time step continuity errors : sum local = 2.22504e-09, global = -9.53793e-18, cumulative = 1.108e-16
Pressure gradient source: uncorrected Ubar = 1, pressure gradient = 0.00286833
smoothSolver:  Solving for omega, Initial residual = 8.33613e-06, Final residual = 8.33613e-06, No Iterations 0
smoothSolver:  Solving for k, Initial residual = 6.51513e-05, Final residual = 9.82132e-06, No Iterations 4
ExecutionTime = 1.12605 s  ClockTime = 1 s

Time = 515s

smoothSolver:  Solving for Ux, Initial residual = 6.45017e-06, Final residual = 6.45017e-06, No Iterations 0
smoothSolver:  Solving for Uy, Initial residual = 0.0180461, Final residual = 0.00179403, No Iterations 3
Pressure gradient source: uncorrected Ubar = 1, pressure gradient = 0.00286833
GAMG:  Solving for p, Initial residual = 0.00212818, Final residual = 0.000183566, No Iterations 22
time step continuity errors : sum local = 1.5106e-09, global = -1.21246e-17, cumulative = 9.86756e-17
Pressure gradient source: uncorrected Ubar = 1, pressure gradient = 0.00286832
smoothSolver:  Solving for omega, Initial residual = 8.3312e-06, Final residual = 8.3312e-06, No Iterations 0
smoothSolver:  Solving for k, Initial residual = 6.36948e-05, Final residual = 6.89891e-06, No Iterations 5
ExecutionTime = 1.1285 s  ClockTime = 1 s

Time = 516s

smoothSolver:  Solving for Ux, Initial residual = 6.2745e-06, Final residual = 6.2745e-06, No Iterations 0
smoothSolver:  Solving for Uy, Initial residual = 0.0275735, Final residual = 0.00230786, No Iterations 3
Pressure gradient source: uncorrected Ubar = 1, pressure gradient = 0.00286832
GAMG:  Solving for p, Initial residual = 0.00277278, Final residual = 0.000238515, No Iterations 11
time step continuity errors : sum local = 1.96382e-09, global = -1.03801e-17, cumulative = 8.82955e-17
Pressure gradient source: uncorrected Ubar = 1, pressure gradient = 0.00286831
smoothSolver:  Solving for omega, Initial residual = 8.32517e-06, Final residual = 8.32517e-06, No Iterations 0
smoothSolver:  Solving for k, Initial residual = 5.97323e-05, Final residual = 7.62177e-06, No Iterations 4
ExecutionTime = 1.1306 s  ClockTime = 1 s

Time = 517s

smoothSolver:  Solving for Ux, Initial residual = 6.15784e-06, Final residual = 6.15784e-06, No Iterations 0
smoothSolver:  Solving for Uy, Initial residual = 0.0359939, Final residual = 0.00346775, No Iterations 3
Pressure gradient source: uncorrected Ubar = 1, pressure gradient = 0.00286831
GAMG:  Solving for p, Initial residual = 0.00228715, Final residual = 0.000215391, No Iterations 19
time step continuity errors : sum local = 1.84752e-09, global = 1.43203e-17, cumulative = 1.02616e-16
Pressure gradient source: uncorrected Ubar = 1, pressure gradient = 0.0028683
smoothSolver:  Solving for omega, Initial residual = 8.31896e-06, Final residual = 8.31896e-06, No Iterations 0
smoothSolver:  Solving for k, Initial residual = 6.46098e-05, Final residual = 6.46531e-06, No Iterations 5
ExecutionTime = 1.13305 s  ClockTime = 1 s

Time = 518s

smoothSolver:  Solving for Ux, Initial residual = 6.03226e-06, Final residual = 6.03226e-06, No Iterations 0
smoothSolver:  Solving for Uy, Initial residual = 0.0164975, Final residual = 0.00140627, No Iterations 3
Pressure gradient source: uncorrected Ubar = 1, pressure gradient = 0.0028683
GAMG:  Solving for p, Initial residual = 0.00226295, Final residual = 0.000171127, No Iterations 15
time step continuity errors : sum local = 1.48699e-09, global = 3.28244e-18, cumulative = 1.05898e-16
Pressure gradient source: uncorrected Ubar = 1, pressure gradient = 0.00286829
smoothSolver:  Solving for omega, Initial residual = 8.31209e-06, Final residual = 8.31209e-06, No Iterations 0
smoothSolver:  Solving for k, Initial residual = 6.47132e-05, Final residual = 7.33738e-06, No Iterations 5
ExecutionTime = 1.13557 s  ClockTime = 1 s

Time = 519s

smoothSolver:  Solving for Ux, Initial residual = 5.8966e-06, Final residual = 5.8966e-06, No Iterations 0
smoothSolver:  Solving for Uy, Initial residual = 0.024369, Final residual = 0.00234433, No Iterations 3
Pressure gradient source: uncorrected Ubar = 1, pressure gradient = 0.00286829
GAMG:  Solving for p, Initial residual = 0.00177282, Final residual = 0.000173651, No Iterations 7
time step continuity errors : sum local = 1.54289e-09, global = 9.2449e-18, cumulative = 1.15143e-16
Pressure gradient source: uncorrected Ubar = 1, pressure gradient = 0.00286828
smoothSolver:  Solving for omega, Initial residual = 8.30396e-06, Final residual = 8.30396e-06, No Iterations 0
smoothSolver:  Solving for k, Initial residual = 6.20315e-05, Final residual = 8.99717e-06, No Iterations 4
ExecutionTime = 1.13771 s  ClockTime = 1 s

Time = 520s

smoothSolver:  Solving for Ux, Initial residual = 5.77375e-06, Final residual = 5.77375e-06, No Iterations 0
smoothSolver:  Solving for Uy, Initial residual = 0.0207297, Final residual = 0.00100838, No Iterations 4
Pressure gradient source: uncorrected Ubar = 1, pressure gradient = 0.00286828
GAMG:  Solving for p, Initial residual = 0.00203449, Final residual = 0.000161121, No Iterations 16
time step continuity errors : sum local = 1.29643e-09, global = 2.4429e-18, cumulative = 1.17586e-16
Pressure gradient source: uncorrected Ubar = 1, pressure gradient = 0.00286826
smoothSolver:  Solving for omega, Initial residual = 8.29562e-06, Final residual = 8.29562e-06, No Iterations 0
smoothSolver:  Solving for k, Initial residual = 6.21267e-05, Final residual = 9.25737e-06, No Iterations 4
ExecutionTime = 1.14007 s  ClockTime = 1 s

Time = 521s

smoothSolver:  Solving for Ux, Initial residual = 5.67389e-06, Final residual = 5.67389e-06, No Iterations 0
smoothSolver:  Solving for Uy, Initial residual = 0.0226906, Final residual = 0.00212665, No Iterations 3
Pressure gradient source: uncorrected Ubar = 1, pressure gradient = 0.00286826
GAMG:  Solving for p, Initial residual = 0.00212863, Final residual = 0.000192677, No Iterations 13
time step continuity errors : sum local = 1.58307e-09, global = -1.41221e-18, cumulative = 1.16174e-16
Pressure gradient source: uncorrected Ubar = 1, pressure gradient = 0.00286825
smoothSolver:  Solving for omega, Initial residual = 8.28649e-06, Final residual = 8.28649e-06, No Iterations 0
smoothSolver:  Solving for k, Initial residual = 5.8626e-05, Final residual = 8.45982e-06, No Iterations 4
ExecutionTime = 1.14223 s  ClockTime = 1 s

Time = 522s

smoothSolver:  Solving for Ux, Initial residual = 5.56824e-06, Final residual = 5.56824e-06, No Iterations 0
smoothSolver:  Solving for Uy, Initial residual = 0.0099328, Final residual = 0.000672593, No Iterations 3
Pressure gradient source: uncorrected Ubar = 1, pressure gradient = 0.00286825
GAMG:  Solving for p, Initial residual = 0.00153654, Final residual = 0.000123833, No Iterations 13
time step continuity errors : sum local = 1.00899e-09, global = 1.22066e-18, cumulative = 1.17394e-16
Pressure gradient source: uncorrected Ubar = 1, pressure gradient = 0.00286823
smoothSolver:  Solving for omega, Initial residual = 8.27698e-06, Final residual = 8.27698e-06, No Iterations 0
smoothSolver:  Solving for k, Initial residual = 6.57321e-05, Final residual = 7.63032e-06, No Iterations 5
ExecutionTime = 1.14439 s  ClockTime = 1 s


SIMPLE solution converged in 522 iterations

End

