/*---------------------------------------------------------------------------*\
  =========                 |
  \\      /  F ield         | OpenFOAM: The Open Source CFD Toolbox
   \\    /   O peration     | Website:  https://openfoam.org
    \\  /    A nd           | Version:  10
     \\/     M anipulation  |
\*---------------------------------------------------------------------------*/
Build  : 10-e450dce21ea5
Exec   : blockMesh
Date   : Jan 16 2023
Time   : 11:42:27
Host   : "w530-R9YK46P"
PID    : 13769
I/O    : uncollated
Case   : /home/jdmezazeron/gitDanielMezaZ/turbulenceVisualized/Data/SimulationFiles/E6_Re338
nProcs : 1
sigFpe : Enabling floating point exception trapping (FOAM_SIGFPE).
fileModificationChecking : Monitoring run-time modified files using timeStampMaster (fileModificationSkew 10)
allowSystemOperations : Allowing user-supplied system call operations

// * * * * * * * * * * * * * * * * * * * * * * * * * * * * * * * * * * * * * //
Create time

Reading "blockMeshDict"

Creating block mesh from
    "system/blockMeshDict"
Creating block edges
No non-planar block faces defined
Creating topology blocks
Creating topology patches

Creating block mesh topology

Check topology

	Basic statistics
		Number of internal faces : 0
		Number of boundary faces : 6
		Number of defined boundary faces : 6
		Number of undefined boundary faces : 0
	Checking patch -> block consistency

Creating block offsets
Creating merge list .

Creating polyMesh from blockMesh
Creating patches
Creating cells
Creating points with scale 1
    Block 0 cell size :
        i : 0.5
        j : 0.00921276 .. 0.036851
        k : 2

Detected cyclic patches; ordering boundary faces

Writing polyMesh
----------------
Mesh Information
----------------
  boundingBox: (-1 0 -1) (1 1 1)
  nPoints: 510
  nCells: 200
  nFaces: 854
  nInternalFaces: 346
----------------
Patches
----------------
  patch 0 (start: 346 size: 50) name: inlet
  patch 1 (start: 396 size: 50) name: outlet
  patch 2 (start: 446 size: 4) name: fixedWalls-bottom
  patch 3 (start: 450 size: 4) name: fixedWalls-top
  patch 4 (start: 454 size: 400) name: frontAndBack

End

/*---------------------------------------------------------------------------*\
  =========                 |
  \\      /  F ield         | OpenFOAM: The Open Source CFD Toolbox
   \\    /   O peration     | Website:  https://openfoam.org
    \\  /    A nd           | Version:  10
     \\/     M anipulation  |
\*---------------------------------------------------------------------------*/
Build  : 10-e450dce21ea5
Exec   : simpleFoam
Date   : Jan 16 2023
Time   : 11:42:27
Host   : "w530-R9YK46P"
PID    : 13770
I/O    : uncollated
Case   : /home/jdmezazeron/gitDanielMezaZ/turbulenceVisualized/Data/SimulationFiles/E6_Re338
nProcs : 1
sigFpe : Enabling floating point exception trapping (FOAM_SIGFPE).
fileModificationChecking : Monitoring run-time modified files using timeStampMaster (fileModificationSkew 10)
allowSystemOperations : Allowing user-supplied system call operations

// * * * * * * * * * * * * * * * * * * * * * * * * * * * * * * * * * * * * * //
Create time

Create mesh for time = 0


SIMPLE: Convergence criteria found
        U: tolerance 0.01
        p: tolerance 0.01
        omega: tolerance 0.0001

Reading field p

Reading field U

Reading/calculating face flux field phi

Selecting viscosity model Newtonian
Selecting turbulence model type RAS
Selecting RAS turbulence model kOmegaSST
Selecting patchDistMethod meshWave
RAS
{
    RASModel        kOmegaSST;
    turbulence      on;
    printCoeffs     on;
    alphaK1         0.85;
    alphaK2         1;
    alphaOmega1     0.5;
    alphaOmega2     0.856;
    gamma1          0.555556;
    gamma2          0.44;
    beta1           0.075;
    beta2           0.0828;
    betaStar        0.09;
    a1              0.31;
    b1              1;
    c1              10;
    F3              false;
}

No MRF models present

--> FOAM Warning : Creating fvModels from "system/fvOptions" rather than constant/fvModels
No fvModels present
--> FOAM Warning : Creating fvConstraints from "system/fvOptions"

Selecting finite volume constraint type meanVelocityForce
    Name: momentumSource
    - selecting all cells
    - selected 200 cell(s) with volume 4
    Initial pressure gradient = 0


Starting time loop

turbulenceFields stressComponents: storing fields:
    R

Time = 1s

smoothSolver:  Solving for Ux, Initial residual = 0, Final residual = 0, No Iterations 0
smoothSolver:  Solving for Uy, Initial residual = 0, Final residual = 0, No Iterations 0
Pressure gradient source: uncorrected Ubar = 0, pressure gradient = 23.2988
GAMG:  Solving for p, Initial residual = 0.999987, Final residual = 0.0727561, No Iterations 2
time step continuity errors : sum local = 5.18104e-17, global = -2.36688e-18, cumulative = -2.36688e-18
Pressure gradient source: uncorrected Ubar = 0.869361, pressure gradient = 3.04372
smoothSolver:  Solving for omega, Initial residual = 0.018309, Final residual = 0.00131835, No Iterations 2
smoothSolver:  Solving for k, Initial residual = 1, Final residual = 0.0365581, No Iterations 1
ExecutionTime = 0.013115 s  ClockTime = 0 s

Time = 2s

smoothSolver:  Solving for Ux, Initial residual = 0.382775, Final residual = 0.0324463, No Iterations 6
smoothSolver:  Solving for Uy, Initial residual = 1, Final residual = 0.0760954, No Iterations 2
Pressure gradient source: uncorrected Ubar = 1.84519, pressure gradient = -20.7053
GAMG:  Solving for p, Initial residual = 1, Final residual = 0.0842935, No Iterations 6
time step continuity errors : sum local = 0.000666345, global = -5.34647e-18, cumulative = -7.71335e-18
Pressure gradient source: uncorrected Ubar = 1.11471, pressure gradient = -0.179649
smoothSolver:  Solving for omega, Initial residual = 0.159441, Final residual = 0.000634033, No Iterations 1
smoothSolver:  Solving for k, Initial residual = 0.126861, Final residual = 0.00625649, No Iterations 3
ExecutionTime = 0.015381 s  ClockTime = 0 s

Time = 3s

smoothSolver:  Solving for Ux, Initial residual = 0.0547913, Final residual = 0.00511414, No Iterations 5
smoothSolver:  Solving for Uy, Initial residual = 0.346296, Final residual = 0.020009, No Iterations 4
Pressure gradient source: uncorrected Ubar = 0.929877, pressure gradient = 1.84155
GAMG:  Solving for p, Initial residual = 0.201314, Final residual = 0.0149983, No Iterations 5
time step continuity errors : sum local = 0.000225627, global = 5.35325e-18, cumulative = -2.3601e-18
Pressure gradient source: uncorrected Ubar = 0.989953, pressure gradient = 0.109946
smoothSolver:  Solving for omega, Initial residual = 0.00897183, Final residual = 0.00019305, No Iterations 1
smoothSolver:  Solving for k, Initial residual = 0.0481058, Final residual = 0.00466545, No Iterations 3
ExecutionTime = 0.017572 s  ClockTime = 0 s

Time = 4s

smoothSolver:  Solving for Ux, Initial residual = 0.0252415, Final residual = 0.00174157, No Iterations 5
smoothSolver:  Solving for Uy, Initial residual = 0.220321, Final residual = 0.0207495, No Iterations 3
Pressure gradient source: uncorrected Ubar = 1.01079, pressure gradient = -0.195314
GAMG:  Solving for p, Initial residual = 0.13308, Final residual = 0.0125564, No Iterations 6
time step continuity errors : sum local = 0.000188574, global = -3.84892e-18, cumulative = -6.20902e-18
Pressure gradient source: uncorrected Ubar = 1.00148, pressure gradient = 0.0681029
smoothSolver:  Solving for omega, Initial residual = 0.00859755, Final residual = 0.000148215, No Iterations 1
smoothSolver:  Solving for k, Initial residual = 0.0320221, Final residual = 0.00226483, No Iterations 4
ExecutionTime = 0.019737 s  ClockTime = 0 s

Time = 5s

smoothSolver:  Solving for Ux, Initial residual = 0.0173974, Final residual = 0.00118518, No Iterations 5
smoothSolver:  Solving for Uy, Initial residual = 0.330806, Final residual = 0.0269027, No Iterations 4
Pressure gradient source: uncorrected Ubar = 1.00282, pressure gradient = -0.0115185
GAMG:  Solving for p, Initial residual = 0.149026, Final residual = 0.01039, No Iterations 8
time step continuity errors : sum local = 0.000109531, global = 6.69156e-20, cumulative = -6.1421e-18
Pressure gradient source: uncorrected Ubar = 1.00036, pressure gradient = 0.0580405
smoothSolver:  Solving for omega, Initial residual = 0.00345043, Final residual = 9.32663e-05, No Iterations 1
smoothSolver:  Solving for k, Initial residual = 0.0253977, Final residual = 0.00216642, No Iterations 4
ExecutionTime = 0.021912 s  ClockTime = 0 s

Time = 6s

smoothSolver:  Solving for Ux, Initial residual = 0.0134915, Final residual = 0.000936272, No Iterations 5
smoothSolver:  Solving for Uy, Initial residual = 0.360107, Final residual = 0.0297042, No Iterations 3
Pressure gradient source: uncorrected Ubar = 1.00244, pressure gradient = -0.0105852
GAMG:  Solving for p, Initial residual = 0.163636, Final residual = 0.0111759, No Iterations 6
time step continuity errors : sum local = 7.47257e-05, global = 1.50224e-18, cumulative = -4.63986e-18
Pressure gradient source: uncorrected Ubar = 1.00031, pressure gradient = 0.0493856
smoothSolver:  Solving for omega, Initial residual = 0.00232025, Final residual = 6.00999e-05, No Iterations 1
smoothSolver:  Solving for k, Initial residual = 0.0221982, Final residual = 0.00182412, No Iterations 4
ExecutionTime = 0.024066 s  ClockTime = 0 s

Time = 7s

smoothSolver:  Solving for Ux, Initial residual = 0.0107712, Final residual = 0.000759824, No Iterations 5
smoothSolver:  Solving for Uy, Initial residual = 0.300768, Final residual = 0.0222234, No Iterations 3
Pressure gradient source: uncorrected Ubar = 1.00177, pressure gradient = -0.000171378
GAMG:  Solving for p, Initial residual = 0.177071, Final residual = 0.0149046, No Iterations 7
time step continuity errors : sum local = 7.40826e-05, global = 1.2049e-19, cumulative = -4.51937e-18
Pressure gradient source: uncorrected Ubar = 1.00022, pressure gradient = 0.0432956
smoothSolver:  Solving for omega, Initial residual = 0.00117286, Final residual = 3.61453e-05, No Iterations 1
smoothSolver:  Solving for k, Initial residual = 0.019528, Final residual = 0.0011763, No Iterations 5
ExecutionTime = 0.026283 s  ClockTime = 0 s

Time = 8s

smoothSolver:  Solving for Ux, Initial residual = 0.0088347, Final residual = 0.000634205, No Iterations 5
smoothSolver:  Solving for Uy, Initial residual = 0.256586, Final residual = 0.0181054, No Iterations 3
Pressure gradient source: uncorrected Ubar = 1.00139, pressure gradient = 0.00448442
GAMG:  Solving for p, Initial residual = 0.163317, Final residual = 0.010582, No Iterations 7
time step continuity errors : sum local = 4.33551e-05, global = -3.98127e-18, cumulative = -8.50064e-18
Pressure gradient source: uncorrected Ubar = 1.00017, pressure gradient = 0.0386048
smoothSolver:  Solving for omega, Initial residual = 0.000695267, Final residual = 2.37484e-05, No Iterations 1
smoothSolver:  Solving for k, Initial residual = 0.0176631, Final residual = 0.00110166, No Iterations 5
ExecutionTime = 0.028412 s  ClockTime = 0 s

Time = 9s

smoothSolver:  Solving for Ux, Initial residual = 0.00740108, Final residual = 0.000537154, No Iterations 5
smoothSolver:  Solving for Uy, Initial residual = 0.258814, Final residual = 0.0219303, No Iterations 3
Pressure gradient source: uncorrected Ubar = 1.00109, pressure gradient = 0.00844922
GAMG:  Solving for p, Initial residual = 0.140944, Final residual = 0.0116046, No Iterations 6
time step continuity errors : sum local = 4.53135e-05, global = -9.45077e-19, cumulative = -9.44572e-18
Pressure gradient source: uncorrected Ubar = 1.00013, pressure gradient = 0.0350337
smoothSolver:  Solving for omega, Initial residual = 0.000379314, Final residual = 1.50471e-05, No Iterations 1
smoothSolver:  Solving for k, Initial residual = 0.0158924, Final residual = 0.00149316, No Iterations 4
ExecutionTime = 0.03049 s  ClockTime = 0 s

Time = 10s

smoothSolver:  Solving for Ux, Initial residual = 0.00628787, Final residual = 0.000461549, No Iterations 5
smoothSolver:  Solving for Uy, Initial residual = 0.320105, Final residual = 0.030514, No Iterations 3
Pressure gradient source: uncorrected Ubar = 1.00084, pressure gradient = 0.0118989
GAMG:  Solving for p, Initial residual = 0.124462, Final residual = 0.0115301, No Iterations 5
time step continuity errors : sum local = 3.89581e-05, global = 9.69493e-18, cumulative = 2.4921e-19
Pressure gradient source: uncorrected Ubar = 1.0001, pressure gradient = 0.0323631
smoothSolver:  Solving for omega, Initial residual = 0.000217682, Final residual = 1.06599e-05, No Iterations 1
smoothSolver:  Solving for k, Initial residual = 0.0146218, Final residual = 0.000967599, No Iterations 5
ExecutionTime = 0.03282 s  ClockTime = 0 s

Time = 11s

smoothSolver:  Solving for Ux, Initial residual = 0.00538542, Final residual = 0.000400515, No Iterations 5
smoothSolver:  Solving for Uy, Initial residual = 0.376352, Final residual = 0.0198592, No Iterations 4
Pressure gradient source: uncorrected Ubar = 1.0007, pressure gradient = 0.0130716
GAMG:  Solving for p, Initial residual = 0.115816, Final residual = 0.00796893, No Iterations 4
time step continuity errors : sum local = 2.40745e-05, global = -5.61338e-18, cumulative = -5.36417e-18
Pressure gradient source: uncorrected Ubar = 1.00008, pressure gradient = 0.0301619
smoothSolver:  Solving for omega, Initial residual = 0.000122933, Final residual = 7.42115e-06, No Iterations 1
smoothSolver:  Solving for k, Initial residual = 0.0133773, Final residual = 0.00131775, No Iterations 4
ExecutionTime = 0.034913 s  ClockTime = 0 s

Time = 12s

smoothSolver:  Solving for Ux, Initial residual = 0.00466344, Final residual = 0.000349613, No Iterations 5
smoothSolver:  Solving for Uy, Initial residual = 0.452225, Final residual = 0.0244437, No Iterations 4
Pressure gradient source: uncorrected Ubar = 1.00057, pressure gradient = 0.0145499
GAMG:  Solving for p, Initial residual = 0.113444, Final residual = 0.00951273, No Iterations 3
time step continuity errors : sum local = 2.61214e-05, global = 5.67512e-18, cumulative = 3.1095e-19
Pressure gradient source: uncorrected Ubar = 1.00006, pressure gradient = 0.0284177
smoothSolver:  Solving for omega, Initial residual = 7.09324e-05, Final residual = 5.5652e-06, No Iterations 1
smoothSolver:  Solving for k, Initial residual = 0.0124042, Final residual = 0.000795545, No Iterations 5
ExecutionTime = 0.036953 s  ClockTime = 0 s

Time = 13s

smoothSolver:  Solving for Ux, Initial residual = 0.00406814, Final residual = 0.00030647, No Iterations 5
smoothSolver:  Solving for Uy, Initial residual = 0.447535, Final residual = 0.022827, No Iterations 4
Pressure gradient source: uncorrected Ubar = 1.00048, pressure gradient = 0.015333
GAMG:  Solving for p, Initial residual = 0.107844, Final residual = 0.0105922, No Iterations 3
time step continuity errors : sum local = 2.56517e-05, global = 1.83928e-18, cumulative = 2.15023e-18
Pressure gradient source: uncorrected Ubar = 1.00005, pressure gradient = 0.0269769
smoothSolver:  Solving for omega, Initial residual = 4.14787e-05, Final residual = 4.31913e-06, No Iterations 1
smoothSolver:  Solving for k, Initial residual = 0.0114993, Final residual = 0.000810343, No Iterations 5
ExecutionTime = 0.038909 s  ClockTime = 0 s

Time = 14s

smoothSolver:  Solving for Ux, Initial residual = 0.00356879, Final residual = 0.000270548, No Iterations 5
smoothSolver:  Solving for Uy, Initial residual = 0.403979, Final residual = 0.0206147, No Iterations 4
Pressure gradient source: uncorrected Ubar = 1.0004, pressure gradient = 0.0159376
GAMG:  Solving for p, Initial residual = 0.108189, Final residual = 0.00965647, No Iterations 5
time step continuity errors : sum local = 1.93368e-05, global = -1.21528e-18, cumulative = 9.34949e-19
Pressure gradient source: uncorrected Ubar = 1.00004, pressure gradient = 0.0257794
smoothSolver:  Solving for omega, Initial residual = 2.47869e-05, Final residual = 3.46572e-06, No Iterations 1
smoothSolver:  Solving for k, Initial residual = 0.0107176, Final residual = 0.000820572, No Iterations 5
ExecutionTime = 0.041127 s  ClockTime = 0 s

Time = 15s

smoothSolver:  Solving for Ux, Initial residual = 0.00314283, Final residual = 0.000239601, No Iterations 5
smoothSolver:  Solving for Uy, Initial residual = 0.41456, Final residual = 0.0232917, No Iterations 4
Pressure gradient source: uncorrected Ubar = 1.00035, pressure gradient = 0.0162567
GAMG:  Solving for p, Initial residual = 0.116952, Final residual = 0.00858106, No Iterations 5
time step continuity errors : sum local = 1.43967e-05, global = -8.23061e-18, cumulative = -7.29566e-18
Pressure gradient source: uncorrected Ubar = 1.00004, pressure gradient = 0.0247569
smoothSolver:  Solving for omega, Initial residual = 1.53209e-05, Final residual = 2.80446e-06, No Iterations 1
smoothSolver:  Solving for k, Initial residual = 0.00998227, Final residual = 0.000812738, No Iterations 5
ExecutionTime = 0.043211 s  ClockTime = 0 s

Time = 16s

smoothSolver:  Solving for Ux, Initial residual = 0.00277799, Final residual = 0.000213028, No Iterations 5
smoothSolver:  Solving for Uy, Initial residual = 0.372172, Final residual = 0.0211972, No Iterations 4
Pressure gradient source: uncorrected Ubar = 1.0003, pressure gradient = 0.0166846
GAMG:  Solving for p, Initial residual = 0.12041, Final residual = 0.00932626, No Iterations 5
time step continuity errors : sum local = 1.28134e-05, global = 6.03509e-18, cumulative = -1.26057e-18
Pressure gradient source: uncorrected Ubar = 1.00003, pressure gradient = 0.0239055
smoothSolver:  Solving for omega, Initial residual = 9.8279e-06, Final residual = 9.8279e-06, No Iterations 0
smoothSolver:  Solving for k, Initial residual = 0.00981093, Final residual = 0.000637488, No Iterations 5
ExecutionTime = 0.045312 s  ClockTime = 0 s

Time = 17s

smoothSolver:  Solving for Ux, Initial residual = 0.00246082, Final residual = 0.000189344, No Iterations 5
smoothSolver:  Solving for Uy, Initial residual = 0.316855, Final residual = 0.0179309, No Iterations 4
Pressure gradient source: uncorrected Ubar = 1.00026, pressure gradient = 0.0168924
GAMG:  Solving for p, Initial residual = 0.11921, Final residual = 0.00821276, No Iterations 5
time step continuity errors : sum local = 9.44137e-06, global = -6.20383e-18, cumulative = -7.46439e-18
Pressure gradient source: uncorrected Ubar = 1.00003, pressure gradient = 0.0231743
smoothSolver:  Solving for omega, Initial residual = 9.84627e-06, Final residual = 9.84627e-06, No Iterations 0
smoothSolver:  Solving for k, Initial residual = 0.00985828, Final residual = 0.000684115, No Iterations 5
ExecutionTime = 0.047449 s  ClockTime = 0 s

Time = 18s

smoothSolver:  Solving for Ux, Initial residual = 0.00219159, Final residual = 0.000169143, No Iterations 5
smoothSolver:  Solving for Uy, Initial residual = 0.277082, Final residual = 0.0145156, No Iterations 4
Pressure gradient source: uncorrected Ubar = 1.00023, pressure gradient = 0.0170829
GAMG:  Solving for p, Initial residual = 0.117937, Final residual = 0.00956424, No Iterations 5
time step continuity errors : sum local = 8.13506e-06, global = -2.85123e-18, cumulative = -1.03156e-17
Pressure gradient source: uncorrected Ubar = 1.00002, pressure gradient = 0.022548
smoothSolver:  Solving for omega, Initial residual = 9.85623e-06, Final residual = 9.85623e-06, No Iterations 0
smoothSolver:  Solving for k, Initial residual = 0.00986516, Final residual = 0.000606656, No Iterations 5
ExecutionTime = 0.049728 s  ClockTime = 0 s

Time = 19s

smoothSolver:  Solving for Ux, Initial residual = 0.00195676, Final residual = 0.000151767, No Iterations 5
smoothSolver:  Solving for Uy, Initial residual = 0.255984, Final residual = 0.0216824, No Iterations 3
Pressure gradient source: uncorrected Ubar = 1.0002, pressure gradient = 0.0172921
GAMG:  Solving for p, Initial residual = 0.120342, Final residual = 0.0104251, No Iterations 5
time step continuity errors : sum local = 7.30983e-06, global = -2.49214e-18, cumulative = -1.28078e-17
Pressure gradient source: uncorrected Ubar = 1.00002, pressure gradient = 0.0220171
smoothSolver:  Solving for omega, Initial residual = 9.86901e-06, Final residual = 9.86901e-06, No Iterations 0
smoothSolver:  Solving for k, Initial residual = 0.00984899, Final residual = 0.000914995, No Iterations 4
ExecutionTime = 0.051922 s  ClockTime = 0 s

Time = 20s

smoothSolver:  Solving for Ux, Initial residual = 0.00175552, Final residual = 0.000136409, No Iterations 5
smoothSolver:  Solving for Uy, Initial residual = 0.2173, Final residual = 0.0179848, No Iterations 3
Pressure gradient source: uncorrected Ubar = 1.00017, pressure gradient = 0.0174176
GAMG:  Solving for p, Initial residual = 0.122986, Final residual = 0.0109469, No Iterations 5
time step continuity errors : sum local = 6.20125e-06, global = -5.2876e-19, cumulative = -1.33365e-17
Pressure gradient source: uncorrected Ubar = 1.00002, pressure gradient = 0.0215593
smoothSolver:  Solving for omega, Initial residual = 9.87896e-06, Final residual = 9.87896e-06, No Iterations 0
smoothSolver:  Solving for k, Initial residual = 0.00993201, Final residual = 0.000726676, No Iterations 5
ExecutionTime = 0.054093 s  ClockTime = 0 s

Time = 21s

smoothSolver:  Solving for Ux, Initial residual = 0.00157756, Final residual = 0.000123503, No Iterations 5
smoothSolver:  Solving for Uy, Initial residual = 0.206609, Final residual = 0.0164669, No Iterations 3
Pressure gradient source: uncorrected Ubar = 1.00015, pressure gradient = 0.0174729
GAMG:  Solving for p, Initial residual = 0.124578, Final residual = 0.0105899, No Iterations 5
time step continuity errors : sum local = 5.02906e-06, global = 8.62364e-18, cumulative = -4.71289e-18
Pressure gradient source: uncorrected Ubar = 1.00002, pressure gradient = 0.0211567
smoothSolver:  Solving for omega, Initial residual = 9.88838e-06, Final residual = 9.88838e-06, No Iterations 0
smoothSolver:  Solving for k, Initial residual = 0.00995907, Final residual = 0.000774077, No Iterations 5
ExecutionTime = 0.056304 s  ClockTime = 0 s

Time = 22s

smoothSolver:  Solving for Ux, Initial residual = 0.00142298, Final residual = 0.000112007, No Iterations 5
smoothSolver:  Solving for Uy, Initial residual = 0.200493, Final residual = 0.016721, No Iterations 3
Pressure gradient source: uncorrected Ubar = 1.00013, pressure gradient = 0.0175604
GAMG:  Solving for p, Initial residual = 0.121777, Final residual = 0.00990574, No Iterations 5
time step continuity errors : sum local = 3.96089e-06, global = 2.83412e-18, cumulative = -1.87877e-18
Pressure gradient source: uncorrected Ubar = 1.00001, pressure gradient = 0.0208078
smoothSolver:  Solving for omega, Initial residual = 9.89531e-06, Final residual = 9.89531e-06, No Iterations 0
smoothSolver:  Solving for k, Initial residual = 0.00994704, Final residual = 0.000650942, No Iterations 5
ExecutionTime = 0.058382 s  ClockTime = 0 s

Time = 23s

smoothSolver:  Solving for Ux, Initial residual = 0.00128778, Final residual = 0.000102173, No Iterations 5
smoothSolver:  Solving for Uy, Initial residual = 0.20295, Final residual = 0.0175834, No Iterations 3
Pressure gradient source: uncorrected Ubar = 1.00012, pressure gradient = 0.0176019
GAMG:  Solving for p, Initial residual = 0.117653, Final residual = 0.0109232, No Iterations 4
time step continuity errors : sum local = 3.62628e-06, global = 1.17001e-18, cumulative = -7.08754e-19
Pressure gradient source: uncorrected Ubar = 1.00001, pressure gradient = 0.0205005
smoothSolver:  Solving for omega, Initial residual = 9.90087e-06, Final residual = 9.90087e-06, No Iterations 0
smoothSolver:  Solving for k, Initial residual = 0.00996012, Final residual = 0.000673847, No Iterations 5
ExecutionTime = 0.060407 s  ClockTime = 0 s

Time = 24s

smoothSolver:  Solving for Ux, Initial residual = 0.00116905, Final residual = 9.3481e-05, No Iterations 5
smoothSolver:  Solving for Uy, Initial residual = 0.210648, Final residual = 0.0193941, No Iterations 3
Pressure gradient source: uncorrected Ubar = 1.00011, pressure gradient = 0.0176501
GAMG:  Solving for p, Initial residual = 0.119403, Final residual = 0.00745135, No Iterations 4
time step continuity errors : sum local = 2.11118e-06, global = 2.79251e-18, cumulative = 2.08375e-18
Pressure gradient source: uncorrected Ubar = 1.00001, pressure gradient = 0.020231
smoothSolver:  Solving for omega, Initial residual = 9.90611e-06, Final residual = 9.90611e-06, No Iterations 0
smoothSolver:  Solving for k, Initial residual = 0.00998194, Final residual = 0.000687222, No Iterations 5
ExecutionTime = 0.062467 s  ClockTime = 0 s

Time = 25s

smoothSolver:  Solving for Ux, Initial residual = 0.00106823, Final residual = 8.5745e-05, No Iterations 5
smoothSolver:  Solving for Uy, Initial residual = 0.226511, Final residual = 0.0211712, No Iterations 3
Pressure gradient source: uncorrected Ubar = 1.0001, pressure gradient = 0.0176968
GAMG:  Solving for p, Initial residual = 0.114574, Final residual = 0.0111128, No Iterations 3
time step continuity errors : sum local = 2.64161e-06, global = 1.70111e-18, cumulative = 3.78486e-18
Pressure gradient source: uncorrected Ubar = 1.00001, pressure gradient = 0.0199952
smoothSolver:  Solving for omega, Initial residual = 9.90931e-06, Final residual = 9.90931e-06, No Iterations 0
smoothSolver:  Solving for k, Initial residual = 0.00997846, Final residual = 0.000585686, No Iterations 5
ExecutionTime = 0.064535 s  ClockTime = 0 s

Time = 26s

smoothSolver:  Solving for Ux, Initial residual = 0.000979263, Final residual = 7.89023e-05, No Iterations 5
smoothSolver:  Solving for Uy, Initial residual = 0.239825, Final residual = 0.022634, No Iterations 3
Pressure gradient source: uncorrected Ubar = 1.00009, pressure gradient = 0.0177191
GAMG:  Solving for p, Initial residual = 0.106499, Final residual = 0.00889845, No Iterations 3
time step continuity errors : sum local = 1.83379e-06, global = -5.08578e-18, cumulative = -1.30092e-18
Pressure gradient source: uncorrected Ubar = 1.00001, pressure gradient = 0.019786
smoothSolver:  Solving for omega, Initial residual = 9.9148e-06, Final residual = 9.9148e-06, No Iterations 0
smoothSolver:  Solving for k, Initial residual = 0.0100007, Final residual = 0.000695822, No Iterations 5
ExecutionTime = 0.066591 s  ClockTime = 0 s

Time = 27s

smoothSolver:  Solving for Ux, Initial residual = 0.000902296, Final residual = 7.26242e-05, No Iterations 5
smoothSolver:  Solving for Uy, Initial residual = 0.227143, Final residual = 0.0212165, No Iterations 3
Pressure gradient source: uncorrected Ubar = 1.00008, pressure gradient = 0.0177325
GAMG:  Solving for p, Initial residual = 0.0941551, Final residual = 0.00884173, No Iterations 3
time step continuity errors : sum local = 1.60535e-06, global = -1.47603e-18, cumulative = -2.77695e-18
Pressure gradient source: uncorrected Ubar = 1.00001, pressure gradient = 0.0195993
smoothSolver:  Solving for omega, Initial residual = 9.91787e-06, Final residual = 9.91787e-06, No Iterations 0
smoothSolver:  Solving for k, Initial residual = 0.0100421, Final residual = 0.000827458, No Iterations 5
ExecutionTime = 0.068618 s  ClockTime = 0 s

Time = 28s

smoothSolver:  Solving for Ux, Initial residual = 0.000831374, Final residual = 6.7116e-05, No Iterations 5
smoothSolver:  Solving for Uy, Initial residual = 0.218487, Final residual = 0.0199084, No Iterations 3
Pressure gradient source: uncorrected Ubar = 1.00007, pressure gradient = 0.0177501
GAMG:  Solving for p, Initial residual = 0.0878255, Final residual = 0.00712674, No Iterations 4
time step continuity errors : sum local = 1.24407e-06, global = -9.65063e-18, cumulative = -1.24276e-17
Pressure gradient source: uncorrected Ubar = 1.00001, pressure gradient = 0.0194335
smoothSolver:  Solving for omega, Initial residual = 9.9187e-06, Final residual = 9.9187e-06, No Iterations 0
smoothSolver:  Solving for k, Initial residual = 0.0100377, Final residual = 0.000691434, No Iterations 5
ExecutionTime = 0.070707 s  ClockTime = 0 s

Time = 29s

smoothSolver:  Solving for Ux, Initial residual = 0.000768145, Final residual = 6.20058e-05, No Iterations 5
smoothSolver:  Solving for Uy, Initial residual = 0.210845, Final residual = 0.0194673, No Iterations 3
Pressure gradient source: uncorrected Ubar = 1.00006, pressure gradient = 0.0177683
GAMG:  Solving for p, Initial residual = 0.0837406, Final residual = 0.00551375, No Iterations 5
time step continuity errors : sum local = 7.8936e-07, global = -1.186e-18, cumulative = -1.36136e-17
Pressure gradient source: uncorrected Ubar = 1.00001, pressure gradient = 0.0192863
smoothSolver:  Solving for omega, Initial residual = 9.92393e-06, Final residual = 9.92393e-06, No Iterations 0
smoothSolver:  Solving for k, Initial residual = 0.0100304, Final residual = 0.000578581, No Iterations 5
ExecutionTime = 0.072793 s  ClockTime = 0 s

Time = 30s

smoothSolver:  Solving for Ux, Initial residual = 0.00071001, Final residual = 5.74549e-05, No Iterations 5
smoothSolver:  Solving for Uy, Initial residual = 0.204825, Final residual = 0.0201033, No Iterations 3
Pressure gradient source: uncorrected Ubar = 1.00006, pressure gradient = 0.017778
GAMG:  Solving for p, Initial residual = 0.0762924, Final residual = 0.00544722, No Iterations 5
time step continuity errors : sum local = 6.93362e-07, global = 2.70298e-18, cumulative = -1.09106e-17
Pressure gradient source: uncorrected Ubar = 1, pressure gradient = 0.0191547
smoothSolver:  Solving for omega, Initial residual = 9.92633e-06, Final residual = 9.92633e-06, No Iterations 0
smoothSolver:  Solving for k, Initial residual = 0.0100799, Final residual = 0.000845902, No Iterations 5
ExecutionTime = 0.074886 s  ClockTime = 0 s

Time = 31s

smoothSolver:  Solving for Ux, Initial residual = 0.000657914, Final residual = 5.32388e-05, No Iterations 5
smoothSolver:  Solving for Uy, Initial residual = 0.193916, Final residual = 0.0102657, No Iterations 4
Pressure gradient source: uncorrected Ubar = 1.00005, pressure gradient = 0.0177817
GAMG:  Solving for p, Initial residual = 0.0714864, Final residual = 0.00500989, No Iterations 5
time step continuity errors : sum local = 6.09199e-07, global = -1.29461e-18, cumulative = -1.22052e-17
Pressure gradient source: uncorrected Ubar = 1, pressure gradient = 0.0190363
smoothSolver:  Solving for omega, Initial residual = 9.92758e-06, Final residual = 9.92758e-06, No Iterations 0
smoothSolver:  Solving for k, Initial residual = 0.0100912, Final residual = 0.000816586, No Iterations 5
ExecutionTime = 0.077025 s  ClockTime = 0 s

Time = 32s

smoothSolver:  Solving for Ux, Initial residual = 0.000610844, Final residual = 4.95022e-05, No Iterations 5
smoothSolver:  Solving for Uy, Initial residual = 0.169385, Final residual = 0.0169257, No Iterations 3
Pressure gradient source: uncorrected Ubar = 1.00005, pressure gradient = 0.0177891
GAMG:  Solving for p, Initial residual = 0.0685379, Final residual = 0.00466001, No Iterations 5
time step continuity errors : sum local = 5.10843e-07, global = -1.31291e-17, cumulative = -2.53343e-17
Pressure gradient source: uncorrected Ubar = 1, pressure gradient = 0.0189301
smoothSolver:  Solving for omega, Initial residual = 9.93024e-06, Final residual = 9.93024e-06, No Iterations 0
smoothSolver:  Solving for k, Initial residual = 0.0100667, Final residual = 0.000635491, No Iterations 5
ExecutionTime = 0.079266 s  ClockTime = 0 s

Time = 33s

smoothSolver:  Solving for Ux, Initial residual = 0.000568623, Final residual = 4.6077e-05, No Iterations 5
smoothSolver:  Solving for Uy, Initial residual = 0.145122, Final residual = 0.0144952, No Iterations 3
Pressure gradient source: uncorrected Ubar = 1.00004, pressure gradient = 0.0177963
GAMG:  Solving for p, Initial residual = 0.0620339, Final residual = 0.00452629, No Iterations 5
time step continuity errors : sum local = 4.46071e-07, global = 7.99106e-18, cumulative = -1.73433e-17
Pressure gradient source: uncorrected Ubar = 1, pressure gradient = 0.018835
smoothSolver:  Solving for omega, Initial residual = 9.93274e-06, Final residual = 9.93274e-06, No Iterations 0
smoothSolver:  Solving for k, Initial residual = 0.0100795, Final residual = 0.000604535, No Iterations 5
ExecutionTime = 0.081378 s  ClockTime = 0 s

Time = 34s

smoothSolver:  Solving for Ux, Initial residual = 0.000529601, Final residual = 4.29992e-05, No Iterations 5
smoothSolver:  Solving for Uy, Initial residual = 0.13553, Final residual = 0.0122083, No Iterations 3
Pressure gradient source: uncorrected Ubar = 1.00004, pressure gradient = 0.017799
GAMG:  Solving for p, Initial residual = 0.0560394, Final residual = 0.00443789, No Iterations 5
time step continuity errors : sum local = 3.96192e-07, global = 1.34957e-18, cumulative = -1.59937e-17
Pressure gradient source: uncorrected Ubar = 1, pressure gradient = 0.0187492
smoothSolver:  Solving for omega, Initial residual = 9.93401e-06, Final residual = 9.93401e-06, No Iterations 0
smoothSolver:  Solving for k, Initial residual = 0.0101112, Final residual = 0.000790662, No Iterations 5
ExecutionTime = 0.083511 s  ClockTime = 0 s

Time = 35s

smoothSolver:  Solving for Ux, Initial residual = 0.000494518, Final residual = 4.01909e-05, No Iterations 5
smoothSolver:  Solving for Uy, Initial residual = 0.117081, Final residual = 0.00968291, No Iterations 3
Pressure gradient source: uncorrected Ubar = 1.00004, pressure gradient = 0.0178001
GAMG:  Solving for p, Initial residual = 0.0523929, Final residual = 0.00415174, No Iterations 5
time step continuity errors : sum local = 3.41211e-07, global = 2.24695e-18, cumulative = -1.37468e-17
Pressure gradient source: uncorrected Ubar = 1, pressure gradient = 0.0186715
smoothSolver:  Solving for omega, Initial residual = 9.93605e-06, Final residual = 9.93605e-06, No Iterations 0
smoothSolver:  Solving for k, Initial residual = 0.0101331, Final residual = 0.000843963, No Iterations 5
ExecutionTime = 0.08566 s  ClockTime = 0 s

Time = 36s

smoothSolver:  Solving for Ux, Initial residual = 0.000461822, Final residual = 3.76343e-05, No Iterations 5
smoothSolver:  Solving for Uy, Initial residual = 0.103959, Final residual = 0.00875225, No Iterations 3
Pressure gradient source: uncorrected Ubar = 1.00003, pressure gradient = 0.0178022
GAMG:  Solving for p, Initial residual = 0.0504322, Final residual = 0.00385164, No Iterations 5
time step continuity errors : sum local = 2.90881e-07, global = 4.8804e-19, cumulative = -1.32587e-17
Pressure gradient source: uncorrected Ubar = 1, pressure gradient = 0.0186013
smoothSolver:  Solving for omega, Initial residual = 9.93742e-06, Final residual = 9.93742e-06, No Iterations 0
smoothSolver:  Solving for k, Initial residual = 0.0100794, Final residual = 0.00100497, No Iterations 4
ExecutionTime = 0.087728 s  ClockTime = 0 s

Time = 37s

smoothSolver:  Solving for Ux, Initial residual = 0.000432367, Final residual = 3.53024e-05, No Iterations 5
smoothSolver:  Solving for Uy, Initial residual = 0.0947416, Final residual = 0.00849235, No Iterations 3
Pressure gradient source: uncorrected Ubar = 1.00003, pressure gradient = 0.0178054
GAMG:  Solving for p, Initial residual = 0.0463521, Final residual = 0.00386517, No Iterations 4
time step continuity errors : sum local = 2.79978e-07, global = 1.34301e-18, cumulative = -1.19157e-17
Pressure gradient source: uncorrected Ubar = 1, pressure gradient = 0.018538
smoothSolver:  Solving for omega, Initial residual = 9.93815e-06, Final residual = 9.93815e-06, No Iterations 0
smoothSolver:  Solving for k, Initial residual = 0.0100927, Final residual = 0.000612495, No Iterations 5
ExecutionTime = 0.089789 s  ClockTime = 0 s

Time = 38s

smoothSolver:  Solving for Ux, Initial residual = 0.000404942, Final residual = 3.31271e-05, No Iterations 5
smoothSolver:  Solving for Uy, Initial residual = 0.0861616, Final residual = 0.00767245, No Iterations 3
Pressure gradient source: uncorrected Ubar = 1.00003, pressure gradient = 0.0178049
GAMG:  Solving for p, Initial residual = 0.0479484, Final residual = 0.00445852, No Iterations 4
time step continuity errors : sum local = 2.86974e-07, global = -4.76466e-19, cumulative = -1.23922e-17
Pressure gradient source: uncorrected Ubar = 1, pressure gradient = 0.0184803
smoothSolver:  Solving for omega, Initial residual = 9.93926e-06, Final residual = 9.93926e-06, No Iterations 0
smoothSolver:  Solving for k, Initial residual = 0.0101307, Final residual = 0.000787576, No Iterations 5
ExecutionTime = 0.091882 s  ClockTime = 0 s

Time = 39s

smoothSolver:  Solving for Ux, Initial residual = 0.000380132, Final residual = 3.11845e-05, No Iterations 5
smoothSolver:  Solving for Uy, Initial residual = 0.0798888, Final residual = 0.00778541, No Iterations 3
Pressure gradient source: uncorrected Ubar = 1.00003, pressure gradient = 0.0178045
GAMG:  Solving for p, Initial residual = 0.0485244, Final residual = 0.00396256, No Iterations 4
time step continuity errors : sum local = 2.39722e-07, global = 3.69019e-18, cumulative = -8.70198e-18
Pressure gradient source: uncorrected Ubar = 1, pressure gradient = 0.0184278
smoothSolver:  Solving for omega, Initial residual = 9.94039e-06, Final residual = 9.94039e-06, No Iterations 0
smoothSolver:  Solving for k, Initial residual = 0.0101156, Final residual = 0.000662903, No Iterations 5
ExecutionTime = 0.094011 s  ClockTime = 0 s

Time = 40s

smoothSolver:  Solving for Ux, Initial residual = 0.000357757, Final residual = 2.93925e-05, No Iterations 5
smoothSolver:  Solving for Uy, Initial residual = 0.0794772, Final residual = 0.0076728, No Iterations 3
Pressure gradient source: uncorrected Ubar = 1.00002, pressure gradient = 0.0178049
GAMG:  Solving for p, Initial residual = 0.0469796, Final residual = 0.00446638, No Iterations 3
time step continuity errors : sum local = 2.36845e-07, global = 1.47248e-19, cumulative = -8.55473e-18
Pressure gradient source: uncorrected Ubar = 1, pressure gradient = 0.0183801
smoothSolver:  Solving for omega, Initial residual = 9.94492e-06, Final residual = 9.94492e-06, No Iterations 0
smoothSolver:  Solving for k, Initial residual = 0.0101327, Final residual = 0.000699805, No Iterations 5
ExecutionTime = 0.096013 s  ClockTime = 0 s

Time = 41s

smoothSolver:  Solving for Ux, Initial residual = 0.000336962, Final residual = 2.77742e-05, No Iterations 5
smoothSolver:  Solving for Uy, Initial residual = 0.0833068, Final residual = 0.00779092, No Iterations 3
Pressure gradient source: uncorrected Ubar = 1.00002, pressure gradient = 0.0178044
GAMG:  Solving for p, Initial residual = 0.0440076, Final residual = 0.00367632, No Iterations 4
time step continuity errors : sum local = 1.88379e-07, global = -1.03499e-17, cumulative = -1.89046e-17
Pressure gradient source: uncorrected Ubar = 1, pressure gradient = 0.0183365
smoothSolver:  Solving for omega, Initial residual = 9.94398e-06, Final residual = 9.94398e-06, No Iterations 0
smoothSolver:  Solving for k, Initial residual = 0.0101204, Final residual = 0.000682658, No Iterations 5
ExecutionTime = 0.098091 s  ClockTime = 0 s

Time = 42s

smoothSolver:  Solving for Ux, Initial residual = 0.000318093, Final residual = 2.63116e-05, No Iterations 5
smoothSolver:  Solving for Uy, Initial residual = 0.0776831, Final residual = 0.00715774, No Iterations 3
Pressure gradient source: uncorrected Ubar = 1.00002, pressure gradient = 0.0178038
GAMG:  Solving for p, Initial residual = 0.0439203, Final residual = 0.00378619, No Iterations 4
time step continuity errors : sum local = 1.75177e-07, global = 5.25338e-18, cumulative = -1.36513e-17
Pressure gradient source: uncorrected Ubar = 1, pressure gradient = 0.0182967
smoothSolver:  Solving for omega, Initial residual = 9.94431e-06, Final residual = 9.94431e-06, No Iterations 0
smoothSolver:  Solving for k, Initial residual = 0.0100994, Final residual = 0.000663408, No Iterations 5
ExecutionTime = 0.100243 s  ClockTime = 0 s

Time = 43s

smoothSolver:  Solving for Ux, Initial residual = 0.000300581, Final residual = 2.49714e-05, No Iterations 5
smoothSolver:  Solving for Uy, Initial residual = 0.0755097, Final residual = 0.00724296, No Iterations 3
Pressure gradient source: uncorrected Ubar = 1.00002, pressure gradient = 0.0178029
GAMG:  Solving for p, Initial residual = 0.0419466, Final residual = 0.00390404, No Iterations 3
time step continuity errors : sum local = 1.64591e-07, global = -8.43146e-19, cumulative = -1.44944e-17
Pressure gradient source: uncorrected Ubar = 1, pressure gradient = 0.0182602
smoothSolver:  Solving for omega, Initial residual = 9.9473e-06, Final residual = 9.9473e-06, No Iterations 0
smoothSolver:  Solving for k, Initial residual = 0.0101275, Final residual = 0.000739929, No Iterations 5
ExecutionTime = 0.10228 s  ClockTime = 0 s

Time = 44s

smoothSolver:  Solving for Ux, Initial residual = 0.000284429, Final residual = 2.37487e-05, No Iterations 5
smoothSolver:  Solving for Uy, Initial residual = 0.0716238, Final residual = 0.0068866, No Iterations 3
Pressure gradient source: uncorrected Ubar = 1.00002, pressure gradient = 0.0178017
GAMG:  Solving for p, Initial residual = 0.0388685, Final residual = 0.00367863, No Iterations 3
time step continuity errors : sum local = 1.44261e-07, global = 4.84935e-18, cumulative = -9.64505e-18
Pressure gradient source: uncorrected Ubar = 1, pressure gradient = 0.0182268
smoothSolver:  Solving for omega, Initial residual = 9.94583e-06, Final residual = 9.94583e-06, No Iterations 0
smoothSolver:  Solving for k, Initial residual = 0.0101447, Final residual = 0.000771554, No Iterations 5
ExecutionTime = 0.104275 s  ClockTime = 0 s

Time = 45s

smoothSolver:  Solving for Ux, Initial residual = 0.00026971, Final residual = 2.26527e-05, No Iterations 5
smoothSolver:  Solving for Uy, Initial residual = 0.0666782, Final residual = 0.0063855, No Iterations 3
Pressure gradient source: uncorrected Ubar = 1.00002, pressure gradient = 0.0178006
GAMG:  Solving for p, Initial residual = 0.0370477, Final residual = 0.00330309, No Iterations 3
time step continuity errors : sum local = 1.22284e-07, global = 1.39874e-17, cumulative = 4.34239e-18
Pressure gradient source: uncorrected Ubar = 1, pressure gradient = 0.0181961
smoothSolver:  Solving for omega, Initial residual = 9.94551e-06, Final residual = 9.94551e-06, No Iterations 0
smoothSolver:  Solving for k, Initial residual = 0.0101023, Final residual = 0.000622946, No Iterations 5
ExecutionTime = 0.10622 s  ClockTime = 0 s

Time = 46s

smoothSolver:  Solving for Ux, Initial residual = 0.000256109, Final residual = 2.16489e-05, No Iterations 5
smoothSolver:  Solving for Uy, Initial residual = 0.0616778, Final residual = 0.00598453, No Iterations 3
Pressure gradient source: uncorrected Ubar = 1.00001, pressure gradient = 0.0177996
GAMG:  Solving for p, Initial residual = 0.0356814, Final residual = 0.00286158, No Iterations 3
time step continuity errors : sum local = 9.97885e-08, global = 4.15981e-18, cumulative = 8.5022e-18
Pressure gradient source: uncorrected Ubar = 1, pressure gradient = 0.0181679
smoothSolver:  Solving for omega, Initial residual = 9.94714e-06, Final residual = 9.94714e-06, No Iterations 0
smoothSolver:  Solving for k, Initial residual = 0.0101086, Final residual = 0.000682205, No Iterations 5
ExecutionTime = 0.108315 s  ClockTime = 0 s

Time = 47s

smoothSolver:  Solving for Ux, Initial residual = 0.000243741, Final residual = 2.07372e-05, No Iterations 5
smoothSolver:  Solving for Uy, Initial residual = 0.0571857, Final residual = 0.00570477, No Iterations 3
Pressure gradient source: uncorrected Ubar = 1.00001, pressure gradient = 0.0177983
GAMG:  Solving for p, Initial residual = 0.0331584, Final residual = 0.00254731, No Iterations 3
time step continuity errors : sum local = 8.36702e-08, global = 1.6215e-18, cumulative = 1.01237e-17
Pressure gradient source: uncorrected Ubar = 1, pressure gradient = 0.018142
smoothSolver:  Solving for omega, Initial residual = 9.94986e-06, Final residual = 9.94986e-06, No Iterations 0
smoothSolver:  Solving for k, Initial residual = 0.0101237, Final residual = 0.000704121, No Iterations 5
ExecutionTime = 0.110369 s  ClockTime = 0 s

Time = 48s

smoothSolver:  Solving for Ux, Initial residual = 0.000232592, Final residual = 1.99205e-05, No Iterations 5
smoothSolver:  Solving for Uy, Initial residual = 0.0527186, Final residual = 0.00293929, No Iterations 4
Pressure gradient source: uncorrected Ubar = 1.00001, pressure gradient = 0.0177969
GAMG:  Solving for p, Initial residual = 0.0313852, Final residual = 0.00235764, No Iterations 3
time step continuity errors : sum local = 7.20151e-08, global = 1.29933e-17, cumulative = 2.3117e-17
Pressure gradient source: uncorrected Ubar = 1, pressure gradient = 0.018118
smoothSolver:  Solving for omega, Initial residual = 9.94713e-06, Final residual = 9.94713e-06, No Iterations 0
smoothSolver:  Solving for k, Initial residual = 0.0101166, Final residual = 0.000722395, No Iterations 5
ExecutionTime = 0.112358 s  ClockTime = 0 s

Time = 49s

smoothSolver:  Solving for Ux, Initial residual = 0.000222436, Final residual = 1.92086e-05, No Iterations 5
smoothSolver:  Solving for Uy, Initial residual = 0.0494576, Final residual = 0.00276664, No Iterations 4
Pressure gradient source: uncorrected Ubar = 1.00001, pressure gradient = 0.0177955
GAMG:  Solving for p, Initial residual = 0.0292816, Final residual = 0.00222344, No Iterations 3
time step continuity errors : sum local = 6.33392e-08, global = -6.4313e-18, cumulative = 1.66857e-17
Pressure gradient source: uncorrected Ubar = 1, pressure gradient = 0.0180958
smoothSolver:  Solving for omega, Initial residual = 9.94857e-06, Final residual = 9.94857e-06, No Iterations 0
smoothSolver:  Solving for k, Initial residual = 0.0100912, Final residual = 0.00067315, No Iterations 5
ExecutionTime = 0.114354 s  ClockTime = 0 s

Time = 50s

smoothSolver:  Solving for Ux, Initial residual = 0.000213158, Final residual = 1.85799e-05, No Iterations 5
smoothSolver:  Solving for Uy, Initial residual = 0.0460843, Final residual = 0.00262811, No Iterations 4
Pressure gradient source: uncorrected Ubar = 1.00001, pressure gradient = 0.0177942
GAMG:  Solving for p, Initial residual = 0.0283419, Final residual = 0.00222633, No Iterations 3
time step continuity errors : sum local = 6.21286e-08, global = 4.11589e-18, cumulative = 2.08016e-17
Pressure gradient source: uncorrected Ubar = 1, pressure gradient = 0.0180754
smoothSolver:  Solving for omega, Initial residual = 9.94767e-06, Final residual = 9.94767e-06, No Iterations 0
smoothSolver:  Solving for k, Initial residual = 0.0100673, Final residual = 0.000600244, No Iterations 5
ExecutionTime = 0.116524 s  ClockTime = 0 s

Time = 51s

smoothSolver:  Solving for Ux, Initial residual = 0.000204694, Final residual = 1.80287e-05, No Iterations 5
smoothSolver:  Solving for Uy, Initial residual = 0.0436697, Final residual = 0.00249414, No Iterations 4
Pressure gradient source: uncorrected Ubar = 1.00001, pressure gradient = 0.0177927
GAMG:  Solving for p, Initial residual = 0.0264309, Final residual = 0.00219758, No Iterations 3
time step continuity errors : sum local = 5.74863e-08, global = 9.94207e-19, cumulative = 2.17958e-17
Pressure gradient source: uncorrected Ubar = 1, pressure gradient = 0.0180564
smoothSolver:  Solving for omega, Initial residual = 9.94686e-06, Final residual = 9.94686e-06, No Iterations 0
smoothSolver:  Solving for k, Initial residual = 0.0101151, Final residual = 0.000810595, No Iterations 5
ExecutionTime = 0.118548 s  ClockTime = 0 s

Time = 52s

smoothSolver:  Solving for Ux, Initial residual = 0.000197037, Final residual = 1.75612e-05, No Iterations 5
smoothSolver:  Solving for Uy, Initial residual = 0.0410928, Final residual = 0.00234611, No Iterations 4
Pressure gradient source: uncorrected Ubar = 1.00001, pressure gradient = 0.0177911
GAMG:  Solving for p, Initial residual = 0.0252129, Final residual = 0.00220137, No Iterations 3
time step continuity errors : sum local = 5.75433e-08, global = -7.33226e-18, cumulative = 1.44635e-17
Pressure gradient source: uncorrected Ubar = 1, pressure gradient = 0.0180388
smoothSolver:  Solving for omega, Initial residual = 9.94723e-06, Final residual = 9.94723e-06, No Iterations 0
smoothSolver:  Solving for k, Initial residual = 0.0101264, Final residual = 0.000836455, No Iterations 5
ExecutionTime = 0.120549 s  ClockTime = 0 s

Time = 53s

smoothSolver:  Solving for Ux, Initial residual = 0.000190199, Final residual = 1.71648e-05, No Iterations 5
smoothSolver:  Solving for Uy, Initial residual = 0.0401517, Final residual = 0.00232016, No Iterations 4
Pressure gradient source: uncorrected Ubar = 1.00001, pressure gradient = 0.0177898
GAMG:  Solving for p, Initial residual = 0.0243515, Final residual = 0.00182579, No Iterations 4
time step continuity errors : sum local = 4.48161e-08, global = -3.82204e-18, cumulative = 1.06415e-17
Pressure gradient source: uncorrected Ubar = 1, pressure gradient = 0.0180224
smoothSolver:  Solving for omega, Initial residual = 9.94839e-06, Final residual = 9.94839e-06, No Iterations 0
smoothSolver:  Solving for k, Initial residual = 0.0101093, Final residual = 0.000753919, No Iterations 5
ExecutionTime = 0.122488 s  ClockTime = 0 s

Time = 54s

smoothSolver:  Solving for Ux, Initial residual = 0.000184059, Final residual = 1.68391e-05, No Iterations 5
smoothSolver:  Solving for Uy, Initial residual = 0.037911, Final residual = 0.00212972, No Iterations 4
Pressure gradient source: uncorrected Ubar = 1.00001, pressure gradient = 0.0177884
GAMG:  Solving for p, Initial residual = 0.0232815, Final residual = 0.00210966, No Iterations 3
time step continuity errors : sum local = 4.99231e-08, global = 1.01048e-17, cumulative = 2.07463e-17
Pressure gradient source: uncorrected Ubar = 1, pressure gradient = 0.0180072
smoothSolver:  Solving for omega, Initial residual = 9.94744e-06, Final residual = 9.94744e-06, No Iterations 0
smoothSolver:  Solving for k, Initial residual = 0.0100596, Final residual = 0.000618641, No Iterations 5
ExecutionTime = 0.124434 s  ClockTime = 0 s

Time = 55s

smoothSolver:  Solving for Ux, Initial residual = 0.000178718, Final residual = 1.65655e-05, No Iterations 5
smoothSolver:  Solving for Uy, Initial residual = 0.0375077, Final residual = 0.00219275, No Iterations 4
Pressure gradient source: uncorrected Ubar = 1.00001, pressure gradient = 0.017787
GAMG:  Solving for p, Initial residual = 0.022671, Final residual = 0.00186275, No Iterations 4
time step continuity errors : sum local = 4.17853e-08, global = -1.03151e-17, cumulative = 1.04312e-17
Pressure gradient source: uncorrected Ubar = 1, pressure gradient = 0.0179931
smoothSolver:  Solving for omega, Initial residual = 9.94764e-06, Final residual = 9.94764e-06, No Iterations 0
smoothSolver:  Solving for k, Initial residual = 0.0100798, Final residual = 0.000706048, No Iterations 5
ExecutionTime = 0.126361 s  ClockTime = 0 s

Time = 56s

smoothSolver:  Solving for Ux, Initial residual = 0.00017417, Final residual = 1.62904e-05, No Iterations 5
smoothSolver:  Solving for Uy, Initial residual = 0.0358565, Final residual = 0.00200652, No Iterations 4
Pressure gradient source: uncorrected Ubar = 1.00001, pressure gradient = 0.0177855
GAMG:  Solving for p, Initial residual = 0.0221187, Final residual = 0.0019886, No Iterations 3
time step continuity errors : sum local = 4.35785e-08, global = 1.33495e-17, cumulative = 2.37807e-17
Pressure gradient source: uncorrected Ubar = 1, pressure gradient = 0.0179799
smoothSolver:  Solving for omega, Initial residual = 9.94914e-06, Final residual = 9.94914e-06, No Iterations 0
smoothSolver:  Solving for k, Initial residual = 0.010079, Final residual = 0.000721091, No Iterations 5
ExecutionTime = 0.128257 s  ClockTime = 0 s

Time = 57s

smoothSolver:  Solving for Ux, Initial residual = 0.000169885, Final residual = 1.60135e-05, No Iterations 5
smoothSolver:  Solving for Uy, Initial residual = 0.0356645, Final residual = 0.00211804, No Iterations 4
Pressure gradient source: uncorrected Ubar = 1.00001, pressure gradient = 0.0177841
GAMG:  Solving for p, Initial residual = 0.0215776, Final residual = 0.00175066, No Iterations 4
time step continuity errors : sum local = 3.63626e-08, global = 1.56467e-18, cumulative = 2.53454e-17
Pressure gradient source: uncorrected Ubar = 1, pressure gradient = 0.0179675
smoothSolver:  Solving for omega, Initial residual = 9.95161e-06, Final residual = 9.95161e-06, No Iterations 0
smoothSolver:  Solving for k, Initial residual = 0.0100694, Final residual = 0.000666778, No Iterations 5
ExecutionTime = 0.130335 s  ClockTime = 0 s

Time = 58s

smoothSolver:  Solving for Ux, Initial residual = 0.000165767, Final residual = 1.57424e-05, No Iterations 5
smoothSolver:  Solving for Uy, Initial residual = 0.035067, Final residual = 0.00198631, No Iterations 4
Pressure gradient source: uncorrected Ubar = 1.00001, pressure gradient = 0.0177828
GAMG:  Solving for p, Initial residual = 0.0205429, Final residual = 0.00176886, No Iterations 4
time step continuity errors : sum local = 3.52382e-08, global = 1.5332e-19, cumulative = 2.54987e-17
Pressure gradient source: uncorrected Ubar = 1, pressure gradient = 0.017956
smoothSolver:  Solving for omega, Initial residual = 9.94841e-06, Final residual = 9.94841e-06, No Iterations 0
smoothSolver:  Solving for k, Initial residual = 0.0100731, Final residual = 0.000737753, No Iterations 5
ExecutionTime = 0.132411 s  ClockTime = 0 s

Time = 59s

smoothSolver:  Solving for Ux, Initial residual = 0.000161747, Final residual = 1.54686e-05, No Iterations 5
smoothSolver:  Solving for Uy, Initial residual = 0.0347044, Final residual = 0.00196751, No Iterations 4
Pressure gradient source: uncorrected Ubar = 1.00001, pressure gradient = 0.0177814
GAMG:  Solving for p, Initial residual = 0.0201455, Final residual = 0.00165991, No Iterations 4
time step continuity errors : sum local = 3.13794e-08, global = 9.91128e-18, cumulative = 3.541e-17
Pressure gradient source: uncorrected Ubar = 1, pressure gradient = 0.0179452
smoothSolver:  Solving for omega, Initial residual = 9.94799e-06, Final residual = 9.94799e-06, No Iterations 0
smoothSolver:  Solving for k, Initial residual = 0.0100944, Final residual = 0.000774353, No Iterations 5
ExecutionTime = 0.134495 s  ClockTime = 0 s

Time = 60s

smoothSolver:  Solving for Ux, Initial residual = 0.000157818, Final residual = 1.51922e-05, No Iterations 5
smoothSolver:  Solving for Uy, Initial residual = 0.0348017, Final residual = 0.00198154, No Iterations 4
Pressure gradient source: uncorrected Ubar = 1.00001, pressure gradient = 0.01778
GAMG:  Solving for p, Initial residual = 0.0196996, Final residual = 0.00179718, No Iterations 4
time step continuity errors : sum local = 3.34083e-08, global = 5.5453e-18, cumulative = 4.09553e-17
Pressure gradient source: uncorrected Ubar = 1, pressure gradient = 0.0179351
smoothSolver:  Solving for omega, Initial residual = 9.94761e-06, Final residual = 9.94761e-06, No Iterations 0
smoothSolver:  Solving for k, Initial residual = 0.0100739, Final residual = 0.000727042, No Iterations 5
ExecutionTime = 0.136526 s  ClockTime = 0 s

Time = 61s

smoothSolver:  Solving for Ux, Initial residual = 0.000153972, Final residual = 1.49186e-05, No Iterations 5
smoothSolver:  Solving for Uy, Initial residual = 0.0341777, Final residual = 0.00194513, No Iterations 4
Pressure gradient source: uncorrected Ubar = 1.00001, pressure gradient = 0.0177787
GAMG:  Solving for p, Initial residual = 0.0192446, Final residual = 0.00182248, No Iterations 4
time step continuity errors : sum local = 3.27696e-08, global = 3.67876e-18, cumulative = 4.4634e-17
Pressure gradient source: uncorrected Ubar = 1, pressure gradient = 0.0179256
smoothSolver:  Solving for omega, Initial residual = 9.9477e-06, Final residual = 9.9477e-06, No Iterations 0
smoothSolver:  Solving for k, Initial residual = 0.0100437, Final residual = 0.000670434, No Iterations 5
ExecutionTime = 0.138676 s  ClockTime = 0 s

Time = 62s

smoothSolver:  Solving for Ux, Initial residual = 0.000150204, Final residual = 1.46425e-05, No Iterations 5
smoothSolver:  Solving for Uy, Initial residual = 0.0335116, Final residual = 0.00190142, No Iterations 4
Pressure gradient source: uncorrected Ubar = 1.00001, pressure gradient = 0.0177775
GAMG:  Solving for p, Initial residual = 0.0184752, Final residual = 0.00115611, No Iterations 5
time step continuity errors : sum local = 2.03866e-08, global = 4.99523e-18, cumulative = 4.96293e-17
Pressure gradient source: uncorrected Ubar = 1, pressure gradient = 0.0179167
smoothSolver:  Solving for omega, Initial residual = 9.94849e-06, Final residual = 9.94849e-06, No Iterations 0
smoothSolver:  Solving for k, Initial residual = 0.0100368, Final residual = 0.000698567, No Iterations 5
ExecutionTime = 0.140746 s  ClockTime = 0 s

Time = 63s

smoothSolver:  Solving for Ux, Initial residual = 0.000146521, Final residual = 1.43653e-05, No Iterations 5
smoothSolver:  Solving for Uy, Initial residual = 0.0321186, Final residual = 0.00176705, No Iterations 4
Pressure gradient source: uncorrected Ubar = 1.00001, pressure gradient = 0.0177762
GAMG:  Solving for p, Initial residual = 0.0181302, Final residual = 0.00148265, No Iterations 4
time step continuity errors : sum local = 2.47725e-08, global = 3.86207e-18, cumulative = 5.34913e-17
Pressure gradient source: uncorrected Ubar = 1, pressure gradient = 0.0179083
smoothSolver:  Solving for omega, Initial residual = 9.94784e-06, Final residual = 9.94784e-06, No Iterations 0
smoothSolver:  Solving for k, Initial residual = 0.00999593, Final residual = 0.00058349, No Iterations 5
ExecutionTime = 0.142804 s  ClockTime = 0 s

Time = 64s

smoothSolver:  Solving for Ux, Initial residual = 0.000142923, Final residual = 1.40874e-05, No Iterations 5
smoothSolver:  Solving for Uy, Initial residual = 0.0326208, Final residual = 0.00185469, No Iterations 4
Pressure gradient source: uncorrected Ubar = 1.00001, pressure gradient = 0.0177749
GAMG:  Solving for p, Initial residual = 0.0175852, Final residual = 0.00117716, No Iterations 5
time step continuity errors : sum local = 1.94986e-08, global = -2.80471e-18, cumulative = 5.06866e-17
Pressure gradient source: uncorrected Ubar = 1, pressure gradient = 0.0179004
smoothSolver:  Solving for omega, Initial residual = 9.94848e-06, Final residual = 9.94848e-06, No Iterations 0
smoothSolver:  Solving for k, Initial residual = 0.0100264, Final residual = 0.000721593, No Iterations 5
ExecutionTime = 0.144809 s  ClockTime = 0 s

Time = 65s

smoothSolver:  Solving for Ux, Initial residual = 0.000139498, Final residual = 1.38096e-05, No Iterations 5
smoothSolver:  Solving for Uy, Initial residual = 0.030921, Final residual = 0.0016981, No Iterations 4
Pressure gradient source: uncorrected Ubar = 1, pressure gradient = 0.0177737
GAMG:  Solving for p, Initial residual = 0.0172895, Final residual = 0.00168251, No Iterations 4
time step continuity errors : sum local = 2.62809e-08, global = -5.13061e-18, cumulative = 4.5556e-17
Pressure gradient source: uncorrected Ubar = 1, pressure gradient = 0.017893
smoothSolver:  Solving for omega, Initial residual = 9.94771e-06, Final residual = 9.94771e-06, No Iterations 0
smoothSolver:  Solving for k, Initial residual = 0.0100444, Final residual = 0.00081527, No Iterations 5
ExecutionTime = 0.146825 s  ClockTime = 0 s

Time = 66s

smoothSolver:  Solving for Ux, Initial residual = 0.000136145, Final residual = 1.35325e-05, No Iterations 5
smoothSolver:  Solving for Uy, Initial residual = 0.0320611, Final residual = 0.00177912, No Iterations 4
Pressure gradient source: uncorrected Ubar = 1, pressure gradient = 0.0177725
GAMG:  Solving for p, Initial residual = 0.0168751, Final residual = 0.00111045, No Iterations 5
time step continuity errors : sum local = 1.72938e-08, global = -7.97473e-18, cumulative = 3.75813e-17
Pressure gradient source: uncorrected Ubar = 1, pressure gradient = 0.017886
smoothSolver:  Solving for omega, Initial residual = 9.94791e-06, Final residual = 9.94791e-06, No Iterations 0
smoothSolver:  Solving for k, Initial residual = 0.00999827, Final residual = 0.000673437, No Iterations 5
ExecutionTime = 0.149002 s  ClockTime = 0 s

Time = 67s

smoothSolver:  Solving for Ux, Initial residual = 0.000132856, Final residual = 1.32563e-05, No Iterations 5
smoothSolver:  Solving for Uy, Initial residual = 0.0299288, Final residual = 0.00158854, No Iterations 4
Pressure gradient source: uncorrected Ubar = 1, pressure gradient = 0.0177714
GAMG:  Solving for p, Initial residual = 0.016453, Final residual = 0.000966264, No Iterations 5
time step continuity errors : sum local = 1.51941e-08, global = 3.37098e-18, cumulative = 4.09523e-17
Pressure gradient source: uncorrected Ubar = 1, pressure gradient = 0.0178793
smoothSolver:  Solving for omega, Initial residual = 9.94739e-06, Final residual = 9.94739e-06, No Iterations 0
smoothSolver:  Solving for k, Initial residual = 0.00995824, Final residual = 0.000607047, No Iterations 5
ExecutionTime = 0.151115 s  ClockTime = 0 s

Time = 68s

smoothSolver:  Solving for Ux, Initial residual = 0.000129634, Final residual = 8.56445e-06, No Iterations 6
smoothSolver:  Solving for Uy, Initial residual = 0.030061, Final residual = 0.00158486, No Iterations 4
Pressure gradient source: uncorrected Ubar = 1, pressure gradient = 0.0178025
GAMG:  Solving for p, Initial residual = 0.0588092, Final residual = 0.00465505, No Iterations 5
time step continuity errors : sum local = 6.35475e-08, global = 1.03639e-17, cumulative = 5.13161e-17
Pressure gradient source: uncorrected Ubar = 1, pressure gradient = 0.0178757
smoothSolver:  Solving for omega, Initial residual = 9.94726e-06, Final residual = 9.94726e-06, No Iterations 0
smoothSolver:  Solving for k, Initial residual = 0.00996822, Final residual = 0.00067829, No Iterations 5
ExecutionTime = 0.153183 s  ClockTime = 0 s

Time = 69s

smoothSolver:  Solving for Ux, Initial residual = 0.000126203, Final residual = 8.35695e-06, No Iterations 6
smoothSolver:  Solving for Uy, Initial residual = 0.111078, Final residual = 0.00873957, No Iterations 3
Pressure gradient source: uncorrected Ubar = 1, pressure gradient = 0.0177896
GAMG:  Solving for p, Initial residual = 0.0572142, Final residual = 0.004762, No Iterations 5
time step continuity errors : sum local = 5.9056e-08, global = 3.24611e-18, cumulative = 5.45623e-17
Pressure gradient source: uncorrected Ubar = 1, pressure gradient = 0.0178706
smoothSolver:  Solving for omega, Initial residual = 9.9477e-06, Final residual = 9.9477e-06, No Iterations 0
smoothSolver:  Solving for k, Initial residual = 0.0099475, Final residual = 0.00067381, No Iterations 5
ExecutionTime = 0.155151 s  ClockTime = 0 s

Time = 70s

smoothSolver:  Solving for Ux, Initial residual = 0.00012293, Final residual = 8.1652e-06, No Iterations 6
smoothSolver:  Solving for Uy, Initial residual = 0.158019, Final residual = 0.0124499, No Iterations 3
Pressure gradient source: uncorrected Ubar = 1, pressure gradient = 0.0177869
GAMG:  Solving for p, Initial residual = 0.0547361, Final residual = 0.00498857, No Iterations 5
time step continuity errors : sum local = 5.54854e-08, global = -6.5204e-19, cumulative = 5.39102e-17
Pressure gradient source: uncorrected Ubar = 1, pressure gradient = 0.0178655
smoothSolver:  Solving for omega, Initial residual = 9.94958e-06, Final residual = 9.94958e-06, No Iterations 0
smoothSolver:  Solving for k, Initial residual = 0.00995358, Final residual = 0.00071428, No Iterations 5
ExecutionTime = 0.157108 s  ClockTime = 0 s

Time = 71s

smoothSolver:  Solving for Ux, Initial residual = 0.00011975, Final residual = 7.97871e-06, No Iterations 6
smoothSolver:  Solving for Uy, Initial residual = 0.154928, Final residual = 0.0131077, No Iterations 3
Pressure gradient source: uncorrected Ubar = 1, pressure gradient = 0.0177843
GAMG:  Solving for p, Initial residual = 0.0493774, Final residual = 0.00282648, No Iterations 6
time step continuity errors : sum local = 2.95751e-08, global = -1.15125e-18, cumulative = 5.2759e-17
Pressure gradient source: uncorrected Ubar = 1, pressure gradient = 0.0178605
smoothSolver:  Solving for omega, Initial residual = 9.9485e-06, Final residual = 9.9485e-06, No Iterations 0
smoothSolver:  Solving for k, Initial residual = 0.00995577, Final residual = 0.000734002, No Iterations 5
ExecutionTime = 0.159083 s  ClockTime = 0 s

Time = 72s

smoothSolver:  Solving for Ux, Initial residual = 0.000116659, Final residual = 7.79642e-06, No Iterations 6
smoothSolver:  Solving for Uy, Initial residual = 0.122696, Final residual = 0.0116421, No Iterations 3
Pressure gradient source: uncorrected Ubar = 1, pressure gradient = 0.0177821
GAMG:  Solving for p, Initial residual = 0.0415606, Final residual = 0.00300776, No Iterations 5
time step continuity errors : sum local = 2.95805e-08, global = 4.70558e-18, cumulative = 5.74645e-17
Pressure gradient source: uncorrected Ubar = 1, pressure gradient = 0.0178557
smoothSolver:  Solving for omega, Initial residual = 9.94699e-06, Final residual = 9.94699e-06, No Iterations 0
smoothSolver:  Solving for k, Initial residual = 0.00997414, Final residual = 0.000814403, No Iterations 5
ExecutionTime = 0.161058 s  ClockTime = 0 s

Time = 73s

smoothSolver:  Solving for Ux, Initial residual = 0.000113652, Final residual = 7.61774e-06, No Iterations 6
smoothSolver:  Solving for Uy, Initial residual = 0.0911453, Final residual = 0.00507764, No Iterations 4
Pressure gradient source: uncorrected Ubar = 1, pressure gradient = 0.0177802
GAMG:  Solving for p, Initial residual = 0.0330153, Final residual = 0.00262914, No Iterations 5
time step continuity errors : sum local = 2.20988e-08, global = 6.77529e-18, cumulative = 6.42398e-17
Pressure gradient source: uncorrected Ubar = 1, pressure gradient = 0.017851
smoothSolver:  Solving for omega, Initial residual = 9.94708e-06, Final residual = 9.94708e-06, No Iterations 0
smoothSolver:  Solving for k, Initial residual = 0.00992197, Final residual = 0.000628913, No Iterations 5
ExecutionTime = 0.163115 s  ClockTime = 0 s

Time = 74s

smoothSolver:  Solving for Ux, Initial residual = 0.000110722, Final residual = 7.44235e-06, No Iterations 6
smoothSolver:  Solving for Uy, Initial residual = 0.071883, Final residual = 0.00409528, No Iterations 4
Pressure gradient source: uncorrected Ubar = 1, pressure gradient = 0.0177785
GAMG:  Solving for p, Initial residual = 0.0262011, Final residual = 0.00225721, No Iterations 5
time step continuity errors : sum local = 1.79628e-08, global = -5.03518e-18, cumulative = 5.92046e-17
Pressure gradient source: uncorrected Ubar = 1, pressure gradient = 0.0178465
smoothSolver:  Solving for omega, Initial residual = 9.94783e-06, Final residual = 9.94783e-06, No Iterations 0
smoothSolver:  Solving for k, Initial residual = 0.00994717, Final residual = 0.000786995, No Iterations 5
ExecutionTime = 0.165289 s  ClockTime = 0 s

Time = 75s

smoothSolver:  Solving for Ux, Initial residual = 0.00010789, Final residual = 7.2701e-06, No Iterations 6
smoothSolver:  Solving for Uy, Initial residual = 0.0561044, Final residual = 0.00337347, No Iterations 4
Pressure gradient source: uncorrected Ubar = 1, pressure gradient = 0.0177768
GAMG:  Solving for p, Initial residual = 0.0218175, Final residual = 0.00174113, No Iterations 4
time step continuity errors : sum local = 1.36927e-08, global = -5.12763e-18, cumulative = 5.4077e-17
Pressure gradient source: uncorrected Ubar = 1, pressure gradient = 0.0178422
smoothSolver:  Solving for omega, Initial residual = 9.94725e-06, Final residual = 9.94725e-06, No Iterations 0
smoothSolver:  Solving for k, Initial residual = 0.00990535, Final residual = 0.000694021, No Iterations 5
ExecutionTime = 0.167353 s  ClockTime = 0 s

Time = 76s

smoothSolver:  Solving for Ux, Initial residual = 0.000105151, Final residual = 7.10085e-06, No Iterations 6
smoothSolver:  Solving for Uy, Initial residual = 0.046521, Final residual = 0.00300697, No Iterations 4
Pressure gradient source: uncorrected Ubar = 1, pressure gradient = 0.0177753
GAMG:  Solving for p, Initial residual = 0.018765, Final residual = 0.00119876, No Iterations 4
time step continuity errors : sum local = 9.07899e-09, global = -3.9066e-18, cumulative = 5.01704e-17
Pressure gradient source: uncorrected Ubar = 1, pressure gradient = 0.0178381
smoothSolver:  Solving for omega, Initial residual = 9.94784e-06, Final residual = 9.94784e-06, No Iterations 0
smoothSolver:  Solving for k, Initial residual = 0.00990546, Final residual = 0.000699437, No Iterations 5
ExecutionTime = 0.169409 s  ClockTime = 0 s

Time = 77s

smoothSolver:  Solving for Ux, Initial residual = 0.000102477, Final residual = 6.93458e-06, No Iterations 6
smoothSolver:  Solving for Uy, Initial residual = 0.038586, Final residual = 0.00253767, No Iterations 4
Pressure gradient source: uncorrected Ubar = 1, pressure gradient = 0.0177738
GAMG:  Solving for p, Initial residual = 0.0168276, Final residual = 0.000869612, No Iterations 4
time step continuity errors : sum local = 6.34592e-09, global = 3.99136e-18, cumulative = 5.41618e-17
Pressure gradient source: uncorrected Ubar = 1, pressure gradient = 0.0178341
smoothSolver:  Solving for omega, Initial residual = 9.94633e-06, Final residual = 9.94633e-06, No Iterations 0
smoothSolver:  Solving for k, Initial residual = 0.00990892, Final residual = 0.000695799, No Iterations 5
ExecutionTime = 0.171381 s  ClockTime = 0 s

Time = 78s

smoothSolver:  Solving for Ux, Initial residual = 9.98649e-05, Final residual = 6.77121e-06, No Iterations 6
smoothSolver:  Solving for Uy, Initial residual = 0.0331679, Final residual = 0.00217968, No Iterations 4
Pressure gradient source: uncorrected Ubar = 1, pressure gradient = 0.0177724
GAMG:  Solving for p, Initial residual = 0.0153668, Final residual = 0.000839896, No Iterations 4
time step continuity errors : sum local = 5.97204e-09, global = -7.56707e-18, cumulative = 4.65947e-17
Pressure gradient source: uncorrected Ubar = 1, pressure gradient = 0.0178303
smoothSolver:  Solving for omega, Initial residual = 9.94634e-06, Final residual = 9.94634e-06, No Iterations 0
smoothSolver:  Solving for k, Initial residual = 0.00990872, Final residual = 0.000773942, No Iterations 5
ExecutionTime = 0.173367 s  ClockTime = 0 s

Time = 79s

smoothSolver:  Solving for Ux, Initial residual = 9.73136e-05, Final residual = 6.6112e-06, No Iterations 6
smoothSolver:  Solving for Uy, Initial residual = 0.0302844, Final residual = 0.00193278, No Iterations 4
Pressure gradient source: uncorrected Ubar = 1, pressure gradient = 0.0177711
GAMG:  Solving for p, Initial residual = 0.014279, Final residual = 0.000919046, No Iterations 4
time step continuity errors : sum local = 6.26549e-09, global = 2.96381e-18, cumulative = 4.95585e-17
Pressure gradient source: uncorrected Ubar = 1, pressure gradient = 0.0178267
smoothSolver:  Solving for omega, Initial residual = 9.94628e-06, Final residual = 9.94628e-06, No Iterations 0
smoothSolver:  Solving for k, Initial residual = 0.00988789, Final residual = 0.000740221, No Iterations 5
ExecutionTime = 0.175538 s  ClockTime = 0 s

Time = 80s

smoothSolver:  Solving for Ux, Initial residual = 9.48218e-05, Final residual = 9.77795e-06, No Iterations 5
smoothSolver:  Solving for Uy, Initial residual = 0.0288557, Final residual = 0.00174872, No Iterations 4
Pressure gradient source: uncorrected Ubar = 1, pressure gradient = 0.0177496
GAMG:  Solving for p, Initial residual = 0.0534558, Final residual = 0.00463689, No Iterations 4
time step continuity errors : sum local = 3.13987e-08, global = -4.33223e-18, cumulative = 4.52263e-17
Pressure gradient source: uncorrected Ubar = 1, pressure gradient = 0.0178215
smoothSolver:  Solving for omega, Initial residual = 9.94807e-06, Final residual = 9.94807e-06, No Iterations 0
smoothSolver:  Solving for k, Initial residual = 0.00986267, Final residual = 0.000690058, No Iterations 5
ExecutionTime = 0.177465 s  ClockTime = 0 s

Time = 81s

smoothSolver:  Solving for Ux, Initial residual = 9.25604e-05, Final residual = 9.57599e-06, No Iterations 5
smoothSolver:  Solving for Uy, Initial residual = 0.0608669, Final residual = 0.00574614, No Iterations 3
Pressure gradient source: uncorrected Ubar = 1, pressure gradient = 0.0177554
GAMG:  Solving for p, Initial residual = 0.0389205, Final residual = 0.00380983, No Iterations 5
time step continuity errors : sum local = 2.9192e-08, global = 1.33265e-17, cumulative = 5.85527e-17
Pressure gradient source: uncorrected Ubar = 1, pressure gradient = 0.0178176
smoothSolver:  Solving for omega, Initial residual = 9.94864e-06, Final residual = 9.94864e-06, No Iterations 0
smoothSolver:  Solving for k, Initial residual = 0.00983971, Final residual = 0.000568332, No Iterations 5
ExecutionTime = 0.179488 s  ClockTime = 0 s

Time = 82s

smoothSolver:  Solving for Ux, Initial residual = 9.03103e-05, Final residual = 9.36788e-06, No Iterations 5
smoothSolver:  Solving for Uy, Initial residual = 0.0767992, Final residual = 0.00710596, No Iterations 3
Pressure gradient source: uncorrected Ubar = 1, pressure gradient = 0.0177552
GAMG:  Solving for p, Initial residual = 0.0304512, Final residual = 0.00258334, No Iterations 5
time step continuity errors : sum local = 1.9733e-08, global = -5.58325e-18, cumulative = 5.29695e-17
Pressure gradient source: uncorrected Ubar = 1, pressure gradient = 0.017814
smoothSolver:  Solving for omega, Initial residual = 9.94639e-06, Final residual = 9.94639e-06, No Iterations 0
smoothSolver:  Solving for k, Initial residual = 0.00989212, Final residual = 0.000830968, No Iterations 5
ExecutionTime = 0.181636 s  ClockTime = 0 s

Time = 83s

smoothSolver:  Solving for Ux, Initial residual = 8.81019e-05, Final residual = 9.16118e-06, No Iterations 5
smoothSolver:  Solving for Uy, Initial residual = 0.0655587, Final residual = 0.00653804, No Iterations 3
Pressure gradient source: uncorrected Ubar = 1, pressure gradient = 0.017755
GAMG:  Solving for p, Initial residual = 0.0210119, Final residual = 0.00198018, No Iterations 5
time step continuity errors : sum local = 1.56816e-08, global = 5.58286e-18, cumulative = 5.85523e-17
Pressure gradient source: uncorrected Ubar = 1, pressure gradient = 0.0178107
smoothSolver:  Solving for omega, Initial residual = 9.94566e-06, Final residual = 9.94566e-06, No Iterations 0
smoothSolver:  Solving for k, Initial residual = 0.00989407, Final residual = 0.000826721, No Iterations 5
ExecutionTime = 0.183759 s  ClockTime = 0 s

Time = 84s

smoothSolver:  Solving for Ux, Initial residual = 8.59344e-05, Final residual = 8.95586e-06, No Iterations 5
smoothSolver:  Solving for Uy, Initial residual = 0.0453402, Final residual = 0.00270283, No Iterations 4
Pressure gradient source: uncorrected Ubar = 1, pressure gradient = 0.0177545
GAMG:  Solving for p, Initial residual = 0.0115214, Final residual = 0.000922219, No Iterations 6
time step continuity errors : sum local = 7.61757e-09, global = -9.58711e-19, cumulative = 5.75936e-17
Pressure gradient source: uncorrected Ubar = 1, pressure gradient = 0.0178077
smoothSolver:  Solving for omega, Initial residual = 9.94541e-06, Final residual = 9.94541e-06, No Iterations 0
smoothSolver:  Solving for k, Initial residual = 0.00987015, Final residual = 0.000744371, No Iterations 5
ExecutionTime = 0.185858 s  ClockTime = 0 s

Time = 85s

smoothSolver:  Solving for Ux, Initial residual = 8.38089e-05, Final residual = 8.75245e-06, No Iterations 5
smoothSolver:  Solving for Uy, Initial residual = 0.0311016, Final residual = 0.00198456, No Iterations 4
Pressure gradient source: uncorrected Ubar = 1, pressure gradient = 0.017754
GAMG:  Solving for p, Initial residual = 0.00620072, Final residual = 0.000534511, No Iterations 3
time step continuity errors : sum local = 4.66062e-09, global = 6.07744e-18, cumulative = 6.36711e-17
Pressure gradient source: uncorrected Ubar = 1, pressure gradient = 0.0178048
smoothSolver:  Solving for omega, Initial residual = 9.94528e-06, Final residual = 9.94528e-06, No Iterations 0
smoothSolver:  Solving for k, Initial residual = 0.0098774, Final residual = 0.000799734, No Iterations 5
ExecutionTime = 0.187841 s  ClockTime = 0 s

Time = 86s

smoothSolver:  Solving for Ux, Initial residual = 8.17262e-05, Final residual = 8.55141e-06, No Iterations 5
smoothSolver:  Solving for Uy, Initial residual = 0.0233904, Final residual = 0.00146813, No Iterations 4
Pressure gradient source: uncorrected Ubar = 1, pressure gradient = 0.0177534
GAMG:  Solving for p, Initial residual = 0.00751191, Final residual = 0.000650341, No Iterations 4
time step continuity errors : sum local = 5.36773e-09, global = 8.37573e-18, cumulative = 7.20468e-17
Pressure gradient source: uncorrected Ubar = 1, pressure gradient = 0.017802
smoothSolver:  Solving for omega, Initial residual = 9.94571e-06, Final residual = 9.94571e-06, No Iterations 0
smoothSolver:  Solving for k, Initial residual = 0.00984402, Final residual = 0.000629477, No Iterations 5
ExecutionTime = 0.189916 s  ClockTime = 0 s

Time = 87s

smoothSolver:  Solving for Ux, Initial residual = 7.96868e-05, Final residual = 8.35303e-06, No Iterations 5
smoothSolver:  Solving for Uy, Initial residual = 0.0218113, Final residual = 0.00135119, No Iterations 4
Pressure gradient source: uncorrected Ubar = 1, pressure gradient = 0.0177528
GAMG:  Solving for p, Initial residual = 0.0098638, Final residual = 0.000772253, No Iterations 5
time step continuity errors : sum local = 6.49722e-09, global = 1.56805e-17, cumulative = 8.77272e-17
Pressure gradient source: uncorrected Ubar = 1, pressure gradient = 0.0177994
smoothSolver:  Solving for omega, Initial residual = 9.94617e-06, Final residual = 9.94617e-06, No Iterations 0
smoothSolver:  Solving for k, Initial residual = 0.0098269, Final residual = 0.000668202, No Iterations 5
ExecutionTime = 0.191974 s  ClockTime = 0 s

Time = 88s

smoothSolver:  Solving for Ux, Initial residual = 7.76909e-05, Final residual = 8.15819e-06, No Iterations 5
smoothSolver:  Solving for Uy, Initial residual = 0.0246678, Final residual = 0.00126668, No Iterations 4
Pressure gradient source: uncorrected Ubar = 1, pressure gradient = 0.0177522
GAMG:  Solving for p, Initial residual = 0.0119268, Final residual = 0.000831467, No Iterations 6
time step continuity errors : sum local = 7.10278e-09, global = -3.37173e-18, cumulative = 8.43555e-17
Pressure gradient source: uncorrected Ubar = 1, pressure gradient = 0.017797
smoothSolver:  Solving for omega, Initial residual = 9.94625e-06, Final residual = 9.94625e-06, No Iterations 0
smoothSolver:  Solving for k, Initial residual = 0.00984559, Final residual = 0.00075126, No Iterations 5
ExecutionTime = 0.193961 s  ClockTime = 0 s

Time = 89s

smoothSolver:  Solving for Ux, Initial residual = 7.57388e-05, Final residual = 7.96669e-06, No Iterations 5
smoothSolver:  Solving for Uy, Initial residual = 0.0265577, Final residual = 0.00245038, No Iterations 3
Pressure gradient source: uncorrected Ubar = 1, pressure gradient = 0.0177516
GAMG:  Solving for p, Initial residual = 0.0128286, Final residual = 0.00103933, No Iterations 5
time step continuity errors : sum local = 8.38135e-09, global = 2.00273e-18, cumulative = 8.63582e-17
Pressure gradient source: uncorrected Ubar = 1, pressure gradient = 0.0177946
smoothSolver:  Solving for omega, Initial residual = 9.94508e-06, Final residual = 9.94508e-06, No Iterations 0
smoothSolver:  Solving for k, Initial residual = 0.00984306, Final residual = 0.00071374, No Iterations 5
ExecutionTime = 0.195978 s  ClockTime = 0 s

Time = 90s

[...]

Time = 120s

smoothSolver:  Solving for Ux, Initial residual = 3.57587e-05, Final residual = 9.00958e-06, No Iterations 3
smoothSolver:  Solving for Uy, Initial residual = 0.023756, Final residual = 0.00123658, No Iterations 4
Pressure gradient source: uncorrected Ubar = 1, pressure gradient = 0.0177313
GAMG:  Solving for p, Initial residual = 0.00952482, Final residual = 0.000531513, No Iterations 5
time step continuity errors : sum local = 4.32728e-09, global = 9.87298e-18, cumulative = 1.31368e-16
Pressure gradient source: uncorrected Ubar = 1, pressure gradient = 0.0177481
smoothSolver:  Solving for omega, Initial residual = 9.94202e-06, Final residual = 9.94202e-06, No Iterations 0
smoothSolver:  Solving for k, Initial residual = 0.00970104, Final residual = 0.000740745, No Iterations 5
ExecutionTime = 0.259337 s  ClockTime = 0 s

Time = 121s

smoothSolver:  Solving for Ux, Initial residual = 3.49761e-05, Final residual = 8.82156e-06, No Iterations 3
smoothSolver:  Solving for Uy, Initial residual = 0.0159593, Final residual = 0.000860054, No Iterations 4
Pressure gradient source: uncorrected Ubar = 1, pressure gradient = 0.0177313
GAMG:  Solving for p, Initial residual = 0.0084768, Final residual = 0.000717579, No Iterations 4
time step continuity errors : sum local = 5.47476e-09, global = 7.04572e-18, cumulative = 1.38414e-16
Pressure gradient source: uncorrected Ubar = 1, pressure gradient = 0.0177474
smoothSolver:  Solving for omega, Initial residual = 9.94212e-06, Final residual = 9.94212e-06, No Iterations 0
smoothSolver:  Solving for k, Initial residual = 0.00971165, Final residual = 0.000787519, No Iterations 5
ExecutionTime = 0.261443 s  ClockTime = 0 s

Time = 122s

smoothSolver:  Solving for Ux, Initial residual = 3.42073e-05, Final residual = 8.63557e-06, No Iterations 3
smoothSolver:  Solving for Uy, Initial residual = 0.0113872, Final residual = 0.00068437, No Iterations 4
Pressure gradient source: uncorrected Ubar = 1, pressure gradient = 0.0177313
GAMG:  Solving for p, Initial residual = 0.00920076, Final residual = 0.000323091, No Iterations 4
time step continuity errors : sum local = 2.55269e-09, global = 4.44231e-18, cumulative = 1.42856e-16
Pressure gradient source: uncorrected Ubar = 1, pressure gradient = 0.0177468
smoothSolver:  Solving for omega, Initial residual = 9.94193e-06, Final residual = 9.94193e-06, No Iterations 0
smoothSolver:  Solving for k, Initial residual = 0.0096811, Final residual = 0.000640954, No Iterations 5
ExecutionTime = 0.263452 s  ClockTime = 0 s

Time = 123s

smoothSolver:  Solving for Ux, Initial residual = 3.34526e-05, Final residual = 8.45196e-06, No Iterations 3
smoothSolver:  Solving for Uy, Initial residual = 0.0135855, Final residual = 0.00135335, No Iterations 3
Pressure gradient source: uncorrected Ubar = 1, pressure gradient = 0.0177313
GAMG:  Solving for p, Initial residual = 0.00986016, Final residual = 0.000436601, No Iterations 4
time step continuity errors : sum local = 3.24725e-09, global = 2.34806e-18, cumulative = 1.45204e-16
Pressure gradient source: uncorrected Ubar = 1, pressure gradient = 0.0177461
smoothSolver:  Solving for omega, Initial residual = 9.94214e-06, Final residual = 9.94214e-06, No Iterations 0
smoothSolver:  Solving for k, Initial residual = 0.00969527, Final residual = 0.000625146, No Iterations 5
ExecutionTime = 0.265592 s  ClockTime = 0 s

Time = 124s

smoothSolver:  Solving for Ux, Initial residual = 3.2712e-05, Final residual = 8.27095e-06, No Iterations 3
smoothSolver:  Solving for Uy, Initial residual = 0.0167499, Final residual = 0.0015219, No Iterations 3
Pressure gradient source: uncorrected Ubar = 1, pressure gradient = 0.0177313
GAMG:  Solving for p, Initial residual = 0.0108721, Final residual = 0.000631165, No Iterations 4
time step continuity errors : sum local = 4.6886e-09, global = -4.0711e-18, cumulative = 1.41133e-16
Pressure gradient source: uncorrected Ubar = 1, pressure gradient = 0.0177456
smoothSolver:  Solving for omega, Initial residual = 9.9418e-06, Final residual = 9.9418e-06, No Iterations 0
smoothSolver:  Solving for k, Initial residual = 0.00971355, Final residual = 0.00077929, No Iterations 5
ExecutionTime = 0.267655 s  ClockTime = 0 s

Time = 125s

smoothSolver:  Solving for Ux, Initial residual = 3.19857e-05, Final residual = 8.09274e-06, No Iterations 3
smoothSolver:  Solving for Uy, Initial residual = 0.0189827, Final residual = 0.00163774, No Iterations 3
Pressure gradient source: uncorrected Ubar = 1, pressure gradient = 0.0177312
GAMG:  Solving for p, Initial residual = 0.0117544, Final residual = 0.000902985, No Iterations 4
time step continuity errors : sum local = 6.83459e-09, global = -1.39881e-17, cumulative = 1.27145e-16
Pressure gradient source: uncorrected Ubar = 1, pressure gradient = 0.017745
smoothSolver:  Solving for omega, Initial residual = 9.94175e-06, Final residual = 9.94175e-06, No Iterations 0
smoothSolver:  Solving for k, Initial residual = 0.0096867, Final residual = 0.000680158, No Iterations 5
ExecutionTime = 0.269674 s  ClockTime = 0 s

Time = 126s

smoothSolver:  Solving for Ux, Initial residual = 3.12736e-05, Final residual = 7.91788e-06, No Iterations 3
smoothSolver:  Solving for Uy, Initial residual = 0.0206615, Final residual = 0.00174484, No Iterations 3
Pressure gradient source: uncorrected Ubar = 1, pressure gradient = 0.0177312
GAMG:  Solving for p, Initial residual = 0.0123399, Final residual = 0.00104726, No Iterations 5
time step continuity errors : sum local = 7.7781e-09, global = -9.95726e-18, cumulative = 1.17188e-16
Pressure gradient source: uncorrected Ubar = 1, pressure gradient = 0.0177445
smoothSolver:  Solving for omega, Initial residual = 9.94189e-06, Final residual = 9.94189e-06, No Iterations 0
smoothSolver:  Solving for k, Initial residual = 0.00970599, Final residual = 0.000727562, No Iterations 5
ExecutionTime = 0.271663 s  ClockTime = 0 s

Time = 127s

smoothSolver:  Solving for Ux, Initial residual = 3.05759e-05, Final residual = 7.7463e-06, No Iterations 3
smoothSolver:  Solving for Uy, Initial residual = 0.0224252, Final residual = 0.00191737, No Iterations 3
Pressure gradient source: uncorrected Ubar = 1, pressure gradient = 0.0177311
GAMG:  Solving for p, Initial residual = 0.012544, Final residual = 0.00107969, No Iterations 5
time step continuity errors : sum local = 7.76697e-09, global = 7.59955e-18, cumulative = 1.24788e-16
Pressure gradient source: uncorrected Ubar = 1, pressure gradient = 0.017744
smoothSolver:  Solving for omega, Initial residual = 9.93483e-06, Final residual = 9.93483e-06, No Iterations 0
smoothSolver:  Solving for k, Initial residual = 0.00971015, Final residual = 0.000755171, No Iterations 5
ExecutionTime = 0.273622 s  ClockTime = 0 s

Time = 128s

smoothSolver:  Solving for Ux, Initial residual = 2.98923e-05, Final residual = 7.57777e-06, No Iterations 3
smoothSolver:  Solving for Uy, Initial residual = 0.0234755, Final residual = 0.00207295, No Iterations 3
Pressure gradient source: uncorrected Ubar = 1, pressure gradient = 0.0177311
GAMG:  Solving for p, Initial residual = 0.0128177, Final residual = 0.0011073, No Iterations 5
time step continuity errors : sum local = 7.76683e-09, global = -2.42673e-18, cumulative = 1.22361e-16
Pressure gradient source: uncorrected Ubar = 1, pressure gradient = 0.0177436
smoothSolver:  Solving for omega, Initial residual = 9.87708e-06, Final residual = 9.87708e-06, No Iterations 0
smoothSolver:  Solving for k, Initial residual = 0.00966324, Final residual = 0.000570215, No Iterations 5
ExecutionTime = 0.27561 s  ClockTime = 0 s

Time = 129s

smoothSolver:  Solving for Ux, Initial residual = 2.92228e-05, Final residual = 7.41231e-06, No Iterations 3
smoothSolver:  Solving for Uy, Initial residual = 0.0242811, Final residual = 0.00215474, No Iterations 3
Pressure gradient source: uncorrected Ubar = 1, pressure gradient = 0.017731
GAMG:  Solving for p, Initial residual = 0.0129284, Final residual = 0.00119609, No Iterations 5
time step continuity errors : sum local = 8.09314e-09, global = -8.21161e-18, cumulative = 1.14149e-16
Pressure gradient source: uncorrected Ubar = 1, pressure gradient = 0.0177431
smoothSolver:  Solving for omega, Initial residual = 9.71757e-06, Final residual = 9.71757e-06, No Iterations 0
smoothSolver:  Solving for k, Initial residual = 0.00969018, Final residual = 0.000703588, No Iterations 5
ExecutionTime = 0.277588 s  ClockTime = 0 s

Time = 130s

smoothSolver:  Solving for Ux, Initial residual = 2.85674e-05, Final residual = 7.24995e-06, No Iterations 3
smoothSolver:  Solving for Uy, Initial residual = 0.0246953, Final residual = 0.00219691, No Iterations 3
Pressure gradient source: uncorrected Ubar = 1, pressure gradient = 0.0177309
GAMG:  Solving for p, Initial residual = 0.0129134, Final residual = 0.00119058, No Iterations 5
time step continuity errors : sum local = 7.62757e-09, global = -8.36703e-18, cumulative = 1.05782e-16
Pressure gradient source: uncorrected Ubar = 1, pressure gradient = 0.0177427
smoothSolver:  Solving for omega, Initial residual = 9.51521e-06, Final residual = 9.51521e-06, No Iterations 0
smoothSolver:  Solving for k, Initial residual = 0.00969646, Final residual = 0.000719125, No Iterations 5
ExecutionTime = 0.279619 s  ClockTime = 0 s

Time = 131s

smoothSolver:  Solving for Ux, Initial residual = 2.79258e-05, Final residual = 7.09069e-06, No Iterations 3
smoothSolver:  Solving for Uy, Initial residual = 0.0251117, Final residual = 0.00219979, No Iterations 3
Pressure gradient source: uncorrected Ubar = 1, pressure gradient = 0.0177309
GAMG:  Solving for p, Initial residual = 0.0128628, Final residual = 0.00120821, No Iterations 5
time step continuity errors : sum local = 7.58385e-09, global = 4.91406e-19, cumulative = 1.06274e-16
Pressure gradient source: uncorrected Ubar = 1, pressure gradient = 0.0177423
smoothSolver:  Solving for omega, Initial residual = 9.35149e-06, Final residual = 9.35149e-06, No Iterations 0
smoothSolver:  Solving for k, Initial residual = 0.00966102, Final residual = 0.000589411, No Iterations 5
ExecutionTime = 0.281774 s  ClockTime = 0 s

Time = 132s

smoothSolver:  Solving for Ux, Initial residual = 2.72978e-05, Final residual = 6.93453e-06, No Iterations 3
smoothSolver:  Solving for Uy, Initial residual = 0.025115, Final residual = 0.00221027, No Iterations 3
Pressure gradient source: uncorrected Ubar = 1, pressure gradient = 0.0177308
GAMG:  Solving for p, Initial residual = 0.0127692, Final residual = 0.00121414, No Iterations 5
time step continuity errors : sum local = 7.45425e-09, global = 1.22402e-17, cumulative = 1.18514e-16
Pressure gradient source: uncorrected Ubar = 1, pressure gradient = 0.0177419
smoothSolver:  Solving for omega, Initial residual = 9.24334e-06, Final residual = 9.24334e-06, No Iterations 0
smoothSolver:  Solving for k, Initial residual = 0.00964667, Final residual = 0.000555638, No Iterations 5
ExecutionTime = 0.284024 s  ClockTime = 0 s

Time = 133s

smoothSolver:  Solving for Ux, Initial residual = 2.66833e-05, Final residual = 6.78146e-06, No Iterations 3
smoothSolver:  Solving for Uy, Initial residual = 0.0250803, Final residual = 0.00220696, No Iterations 3
Pressure gradient source: uncorrected Ubar = 1, pressure gradient = 0.0177308
GAMG:  Solving for p, Initial residual = 0.0126717, Final residual = 0.00121767, No Iterations 5
time step continuity errors : sum local = 7.2975e-09, global = -5.62022e-18, cumulative = 1.12893e-16
Pressure gradient source: uncorrected Ubar = 1, pressure gradient = 0.0177415
smoothSolver:  Solving for omega, Initial residual = 9.17731e-06, Final residual = 9.17731e-06, No Iterations 0
smoothSolver:  Solving for k, Initial residual = 0.00968993, Final residual = 0.000741732, No Iterations 5
ExecutionTime = 0.286208 s  ClockTime = 0 s

Time = 134s

smoothSolver:  Solving for Ux, Initial residual = 2.60821e-05, Final residual = 6.63146e-06, No Iterations 3
smoothSolver:  Solving for Uy, Initial residual = 0.0249281, Final residual = 0.00219002, No Iterations 3
Pressure gradient source: uncorrected Ubar = 1, pressure gradient = 0.0177307
GAMG:  Solving for p, Initial residual = 0.0125625, Final residual = 0.00122342, No Iterations 5
time step continuity errors : sum local = 7.14767e-09, global = -6.73466e-18, cumulative = 1.06159e-16
Pressure gradient source: uncorrected Ubar = 1, pressure gradient = 0.0177411
smoothSolver:  Solving for omega, Initial residual = 9.13778e-06, Final residual = 9.13778e-06, No Iterations 0
smoothSolver:  Solving for k, Initial residual = 0.00971416, Final residual = 0.000846242, No Iterations 5
ExecutionTime = 0.288293 s  ClockTime = 0 s

Time = 135s

smoothSolver:  Solving for Ux, Initial residual = 2.54939e-05, Final residual = 9.9009e-06, No Iterations 2
smoothSolver:  Solving for Uy, Initial residual = 0.0247132, Final residual = 0.00216437, No Iterations 3
Pressure gradient source: uncorrected Ubar = 1, pressure gradient = 0.0177227
GAMG:  Solving for p, Initial residual = 0.0418421, Final residual = 0.00348803, No Iterations 4
time step continuity errors : sum local = 2.10693e-08, global = 1.71042e-19, cumulative = 1.0633e-16
Pressure gradient source: uncorrected Ubar = 1, pressure gradient = 0.0177385
smoothSolver:  Solving for omega, Initial residual = 9.26675e-06, Final residual = 9.26675e-06, No Iterations 0
smoothSolver:  Solving for k, Initial residual = 0.00967248, Final residual = 0.000638856, No Iterations 5
ExecutionTime = 0.290492 s  ClockTime = 0 s

Time = 136s

smoothSolver:  Solving for Ux, Initial residual = 2.50852e-05, Final residual = 9.7804e-06, No Iterations 2
smoothSolver:  Solving for Uy, Initial residual = 0.0538827, Final residual = 0.00484876, No Iterations 3
Pressure gradient source: uncorrected Ubar = 1, pressure gradient = 0.0177285
GAMG:  Solving for p, Initial residual = 0.0405471, Final residual = 0.00339381, No Iterations 5
time step continuity errors : sum local = 2.29202e-08, global = 5.48562e-18, cumulative = 1.11816e-16
Pressure gradient source: uncorrected Ubar = 1, pressure gradient = 0.0177376
smoothSolver:  Solving for omega, Initial residual = 1.66449e-05, Final residual = 2.33267e-06, No Iterations 1
smoothSolver:  Solving for k, Initial residual = 0.00908165, Final residual = 0.000526921, No Iterations 5
bounding k, min: 2.17963e-16 max: 1.65158e-10 average: 8.32054e-11
ExecutionTime = 0.292715 s  ClockTime = 0 s

Time = 137s

smoothSolver:  Solving for Ux, Initial residual = 2.46392e-05, Final residual = 9.63084e-06, No Iterations 2
smoothSolver:  Solving for Uy, Initial residual = 0.0693579, Final residual = 0.00554965, No Iterations 3
Pressure gradient source: uncorrected Ubar = 1, pressure gradient = 0.0177289
GAMG:  Solving for p, Initial residual = 0.0329375, Final residual = 0.00293389, No Iterations 5
time step continuity errors : sum local = 1.98732e-08, global = -3.11753e-18, cumulative = 1.08698e-16
Pressure gradient source: uncorrected Ubar = 1, pressure gradient = 0.0177369
smoothSolver:  Solving for omega, Initial residual = 6.28542e-05, Final residual = 2.4944e-06, No Iterations 1
smoothSolver:  Solving for k, Initial residual = 0.00845301, Final residual = 0.000684712, No Iterations 5
bounding k, min: 1.92937e-16 max: 1.45287e-10 average: 7.42305e-11
ExecutionTime = 0.294809 s  ClockTime = 0 s

Time = 138s

smoothSolver:  Solving for Ux, Initial residual = 2.41959e-05, Final residual = 9.4756e-06, No Iterations 2
smoothSolver:  Solving for Uy, Initial residual = 0.0581658, Final residual = 0.00437247, No Iterations 3
Pressure gradient source: uncorrected Ubar = 1, pressure gradient = 0.0177292
GAMG:  Solving for p, Initial residual = 0.0235619, Final residual = 0.00109576, No Iterations 4
time step continuity errors : sum local = 7.66187e-09, global = 3.34258e-18, cumulative = 1.12041e-16
Pressure gradient source: uncorrected Ubar = 1, pressure gradient = 0.0177364
smoothSolver:  Solving for omega, Initial residual = 0.000157435, Final residual = 3.21664e-06, No Iterations 1
smoothSolver:  Solving for k, Initial residual = 0.00784386, Final residual = 0.000595104, No Iterations 5
bounding k, min: 1.74457e-16 max: 1.29964e-10 average: 6.69636e-11
ExecutionTime = 0.296868 s  ClockTime = 0 s

Time = 139s

smoothSolver:  Solving for Ux, Initial residual = 2.37566e-05, Final residual = 9.31782e-06, No Iterations 2
smoothSolver:  Solving for Uy, Initial residual = 0.0413364, Final residual = 0.00327219, No Iterations 3
Pressure gradient source: uncorrected Ubar = 1, pressure gradient = 0.0177293
GAMG:  Solving for p, Initial residual = 0.0156548, Final residual = 0.00128612, No Iterations 4
time step continuity errors : sum local = 8.96577e-09, global = 8.02586e-18, cumulative = 1.20066e-16
Pressure gradient source: uncorrected Ubar = 1, pressure gradient = 0.017736
smoothSolver:  Solving for omega, Initial residual = 0.000159832, Final residual = 2.80669e-06, No Iterations 1
smoothSolver:  Solving for k, Initial residual = 0.00729548, Final residual = 0.000618015, No Iterations 5
bounding k, min: 1.58408e-16 max: 1.18171e-10 average: 6.06079e-11
ExecutionTime = 0.299145 s  ClockTime = 0 s

Time = 140s

smoothSolver:  Solving for Ux, Initial residual = 2.33225e-05, Final residual = 9.15919e-06, No Iterations 2
smoothSolver:  Solving for Uy, Initial residual = 0.0255002, Final residual = 0.00222597, No Iterations 3
Pressure gradient source: uncorrected Ubar = 1, pressure gradient = 0.0177293
GAMG:  Solving for p, Initial residual = 0.0104405, Final residual = 0.00101919, No Iterations 5
time step continuity errors : sum local = 7.3687e-09, global = 1.10599e-17, cumulative = 1.31126e-16
Pressure gradient source: uncorrected Ubar = 1, pressure gradient = 0.0177356
smoothSolver:  Solving for omega, Initial residual = 0.000130944, Final residual = 2.41122e-06, No Iterations 1
smoothSolver:  Solving for k, Initial residual = 0.00675094, Final residual = 0.000470375, No Iterations 5
bounding k, min: 1.44224e-16 max: 1.09938e-10 average: 5.5441e-11
ExecutionTime = 0.301314 s  ClockTime = 0 s

Time = 141s

smoothSolver:  Solving for Ux, Initial residual = 2.28938e-05, Final residual = 9.00059e-06, No Iterations 2
smoothSolver:  Solving for Uy, Initial residual = 0.0139432, Final residual = 0.00138617, No Iterations 3
Pressure gradient source: uncorrected Ubar = 1, pressure gradient = 0.0177294
GAMG:  Solving for p, Initial residual = 0.00810595, Final residual = 0.000746477, No Iterations 5
time step continuity errors : sum local = 5.52307e-09, global = -7.85869e-18, cumulative = 1.23268e-16
Pressure gradient source: uncorrected Ubar = 1, pressure gradient = 0.0177353
smoothSolver:  Solving for omega, Initial residual = 9.01748e-05, Final residual = 1.83888e-06, No Iterations 1
smoothSolver:  Solving for k, Initial residual = 0.0062816, Final residual = 0.000508735, No Iterations 5
bounding k, min: 1.31557e-16 max: 1.00579e-10 average: 5.09856e-11
ExecutionTime = 0.303363 s  ClockTime = 0 s

Time = 142s

smoothSolver:  Solving for Ux, Initial residual = 2.24708e-05, Final residual = 8.84257e-06, No Iterations 2
smoothSolver:  Solving for Uy, Initial residual = 0.00895019, Final residual = 0.000485391, No Iterations 4
Pressure gradient source: uncorrected Ubar = 1, pressure gradient = 0.0177294
GAMG:  Solving for p, Initial residual = 0.00844079, Final residual = 0.000595464, No Iterations 5
time step continuity errors : sum local = 4.40172e-09, global = -4.48634e-18, cumulative = 1.18781e-16
Pressure gradient source: uncorrected Ubar = 1, pressure gradient = 0.017735
smoothSolver:  Solving for omega, Initial residual = 6.1818e-05, Final residual = 1.52811e-06, No Iterations 1
smoothSolver:  Solving for k, Initial residual = 0.00581776, Final residual = 0.000404368, No Iterations 5
bounding k, min: 1.2034e-16 max: 9.46366e-11 average: 4.7301e-11
ExecutionTime = 0.305405 s  ClockTime = 0 s


SIMPLE solution converged in 142 iterations

End

