/*---------------------------------------------------------------------------*\
  =========                 |
  \\      /  F ield         | OpenFOAM: The Open Source CFD Toolbox
   \\    /   O peration     | Website:  https://openfoam.org
    \\  /    A nd           | Version:  10
     \\/     M anipulation  |
\*---------------------------------------------------------------------------*/
Build  : 10-e450dce21ea5
Exec   : blockMesh
Date   : Feb 20 2023
Time   : 14:18:35
Host   : "w530-R9YK46P"
PID    : 19098
I/O    : uncollated
Case   : /home/jdmezazeron/gitDanielMezaZ/turbulenceVisualized/Data/SimulationFiles/K40_Re9245
nProcs : 1
sigFpe : Enabling floating point exception trapping (FOAM_SIGFPE).
fileModificationChecking : Monitoring run-time modified files using timeStampMaster (fileModificationSkew 10)
allowSystemOperations : Allowing user-supplied system call operations

// * * * * * * * * * * * * * * * * * * * * * * * * * * * * * * * * * * * * * //
Create time

Deleting polyMesh directory
    "/home/jdmezazeron/gitDanielMezaZ/turbulenceVisualized/Data/SimulationFiles/K40_Re9245/constant/polyMesh"
Reading "blockMeshDict"

Creating block mesh from
    "system/blockMeshDict"
Creating block edges
No non-planar block faces defined
Creating topology blocks
Creating topology patches

Creating block mesh topology

Check topology

	Basic statistics
		Number of internal faces : 0
		Number of boundary faces : 6
		Number of defined boundary faces : 6
		Number of undefined boundary faces : 0
	Checking patch -> block consistency

Creating block offsets
Creating merge list .

Creating polyMesh from blockMesh
Creating patches
Creating cells
Creating points with scale 1
    Block 0 cell size :
        i : 0.5
        j : 0.00461374 .. 0.018455
        k : 2

Detected cyclic patches; ordering boundary faces

Writing polyMesh
----------------
Mesh Information
----------------
  boundingBox: (-1 0 -1) (1 1 1)
  nPoints: 1010
  nCells: 400
  nFaces: 1704
  nInternalFaces: 696
----------------
Patches
----------------
  patch 0 (start: 696 size: 100) name: inlet
  patch 1 (start: 796 size: 100) name: outlet
  patch 2 (start: 896 size: 4) name: fixedWalls-bottom
  patch 3 (start: 900 size: 4) name: fixedWalls-top
  patch 4 (start: 904 size: 800) name: frontAndBack

End

/*---------------------------------------------------------------------------*\
  =========                 |
  \\      /  F ield         | OpenFOAM: The Open Source CFD Toolbox
   \\    /   O peration     | Website:  https://openfoam.org
    \\  /    A nd           | Version:  10
     \\/     M anipulation  |
\*---------------------------------------------------------------------------*/
Build  : 10-e450dce21ea5
Exec   : simpleFoam
Date   : Feb 20 2023
Time   : 14:18:35
Host   : "w530-R9YK46P"
PID    : 19099
I/O    : uncollated
Case   : /home/jdmezazeron/gitDanielMezaZ/turbulenceVisualized/Data/SimulationFiles/K40_Re9245
nProcs : 1
sigFpe : Enabling floating point exception trapping (FOAM_SIGFPE).
fileModificationChecking : Monitoring run-time modified files using timeStampMaster (fileModificationSkew 10)
allowSystemOperations : Allowing user-supplied system call operations

// * * * * * * * * * * * * * * * * * * * * * * * * * * * * * * * * * * * * * //
Create time

Create mesh for time = 0


SIMPLE: Convergence criteria found
        U: tolerance 0.0001
        p: tolerance 0.01
        omega: tolerance 0.0001

Reading field p

Reading field U

Reading/calculating face flux field phi

Selecting viscosity model Newtonian
Selecting turbulence model type RAS
Selecting RAS turbulence model kOmegaSST
Selecting patchDistMethod meshWave
RAS
{
    RASModel        kOmegaSST;
    turbulence      on;
    printCoeffs     on;
    alphaK1         0.85;
    alphaK2         1;
    alphaOmega1     0.5;
    alphaOmega2     0.856;
    gamma1          0.555556;
    gamma2          0.44;
    beta1           0.075;
    beta2           0.0828;
    betaStar        0.09;
    a1              0.31;
    b1              1;
    c1              10;
    F3              false;
}

No MRF models present

--> FOAM Warning : Creating fvModels from "system/fvOptions" rather than constant/fvModels
No fvModels present
--> FOAM Warning : Creating fvConstraints from "system/fvOptions"

Selecting finite volume constraint type meanVelocityForce
    Name: momentumSource
    - selecting all cells
    - selected 400 cell(s) with volume 4
    Initial pressure gradient = 0


Starting time loop

turbulenceFields stressComponents: storing fields:
    R

Time = 1s

smoothSolver:  Solving for Ux, Initial residual = 0, Final residual = 0, No Iterations 0
smoothSolver:  Solving for Uy, Initial residual = 0, Final residual = 0, No Iterations 0
Pressure gradient source: uncorrected Ubar = 0, pressure gradient = 1034.72
GAMG:  Solving for p, Initial residual = 0.999996, Final residual = 0.0850866, No Iterations 2
time step continuity errors : sum local = 8.41277e-17, global = -1.56936e-18, cumulative = -1.56936e-18
Pressure gradient source: uncorrected Ubar = 0.884653, pressure gradient = 119.351
smoothSolver:  Solving for omega, Initial residual = 0.264963, Final residual = 0.0160088, No Iterations 3
smoothSolver:  Solving for k, Initial residual = 1, Final residual = 0.0741501, No Iterations 5
ExecutionTime = 0.014108 s  ClockTime = 0 s

Time = 2s

smoothSolver:  Solving for Ux, Initial residual = 0.994137, Final residual = 0.0983196, No Iterations 6
smoothSolver:  Solving for Uy, Initial residual = 1, Final residual = 0.0759085, No Iterations 5
Pressure gradient source: uncorrected Ubar = 73.925, pressure gradient = -884.358
GAMG:  Solving for p, Initial residual = 1, Final residual = 0.0956709, No Iterations 15
time step continuity errors : sum local = 0.0651416, global = -7.28042e-17, cumulative = -7.43735e-17
Pressure gradient source: uncorrected Ubar = 10.5206, pressure gradient = -11.6856
smoothSolver:  Solving for omega, Initial residual = 0.13419, Final residual = 0.00952539, No Iterations 1
smoothSolver:  Solving for k, Initial residual = 0.769331, Final residual = 0.0459782, No Iterations 1
ExecutionTime = 0.017192 s  ClockTime = 0 s

Time = 3s

smoothSolver:  Solving for Ux, Initial residual = 0.300082, Final residual = 0.0220379, No Iterations 6
smoothSolver:  Solving for Uy, Initial residual = 0.662299, Final residual = 0.0193193, No Iterations 2
Pressure gradient source: uncorrected Ubar = -1.53338, pressure gradient = 88.9437
GAMG:  Solving for p, Initial residual = 0.176367, Final residual = 0.0173161, No Iterations 8
time step continuity errors : sum local = 0.0294443, global = -1.4138e-16, cumulative = -2.15753e-16
Pressure gradient source: uncorrected Ubar = 0.692569, pressure gradient = 0.525966
smoothSolver:  Solving for omega, Initial residual = 0.310313, Final residual = 0.00709258, No Iterations 1
smoothSolver:  Solving for k, Initial residual = 0.370257, Final residual = 0.00989015, No Iterations 2
ExecutionTime = 0.019843 s  ClockTime = 0 s

Time = 4s

smoothSolver:  Solving for Ux, Initial residual = 0.0651721, Final residual = 0.00518378, No Iterations 4
smoothSolver:  Solving for Uy, Initial residual = 0.384953, Final residual = 0.0326456, No Iterations 2
Pressure gradient source: uncorrected Ubar = 0.975892, pressure gradient = 1.08093
GAMG:  Solving for p, Initial residual = 0.08284, Final residual = 0.0077774, No Iterations 9
time step continuity errors : sum local = 0.0290731, global = 2.12504e-17, cumulative = -1.94503e-16
Pressure gradient source: uncorrected Ubar = 0.995391, pressure gradient = 0.632074
smoothSolver:  Solving for omega, Initial residual = 0.0465797, Final residual = 0.00156416, No Iterations 2
smoothSolver:  Solving for k, Initial residual = 0.695931, Final residual = 0.0365039, No Iterations 2
ExecutionTime = 0.022523 s  ClockTime = 0 s

Time = 5s

smoothSolver:  Solving for Ux, Initial residual = 0.0609277, Final residual = 0.00430763, No Iterations 5
smoothSolver:  Solving for Uy, Initial residual = 0.515552, Final residual = 0.0425985, No Iterations 2
Pressure gradient source: uncorrected Ubar = 0.879697, pressure gradient = 3.35774
GAMG:  Solving for p, Initial residual = 0.0771823, Final residual = 0.00686413, No Iterations 6
time step continuity errors : sum local = 0.0261397, global = -1.12432e-16, cumulative = -3.06935e-16
Pressure gradient source: uncorrected Ubar = 0.985574, pressure gradient = 0.958922
smoothSolver:  Solving for omega, Initial residual = 0.0810847, Final residual = 0.00228412, No Iterations 2
smoothSolver:  Solving for k, Initial residual = 0.785755, Final residual = 0.017574, No Iterations 2
ExecutionTime = 0.025093 s  ClockTime = 0 s

Time = 6s

smoothSolver:  Solving for Ux, Initial residual = 0.085041, Final residual = 0.00544749, No Iterations 5
smoothSolver:  Solving for Uy, Initial residual = 0.873858, Final residual = 0.0585885, No Iterations 2
Pressure gradient source: uncorrected Ubar = 0.902382, pressure gradient = 3.4578
GAMG:  Solving for p, Initial residual = 0.129822, Final residual = 0.0129821, No Iterations 10
time step continuity errors : sum local = 0.0317378, global = -5.9604e-17, cumulative = -3.66539e-16
Pressure gradient source: uncorrected Ubar = 0.986979, pressure gradient = 1.29223
smoothSolver:  Solving for omega, Initial residual = 0.208285, Final residual = 0.00740289, No Iterations 2
bounding omega, min: -4.26221 max: 3251.62 average: 139.85
smoothSolver:  Solving for k, Initial residual = 0.548926, Final residual = 0.0460667, No Iterations 1
ExecutionTime = 0.02789 s  ClockTime = 0 s

Time = 7s

smoothSolver:  Solving for Ux, Initial residual = 0.0874505, Final residual = 0.00760568, No Iterations 4
smoothSolver:  Solving for Uy, Initial residual = 0.561385, Final residual = 0.045399, No Iterations 2
Pressure gradient source: uncorrected Ubar = 0.968439, pressure gradient = 2.32945
GAMG:  Solving for p, Initial residual = 0.195196, Final residual = 0.0130581, No Iterations 9
time step continuity errors : sum local = 0.0433705, global = -5.38713e-19, cumulative = -3.67078e-16
Pressure gradient source: uncorrected Ubar = 0.994805, pressure gradient = 1.46296
smoothSolver:  Solving for omega, Initial residual = 0.29357, Final residual = 0.00770217, No Iterations 2
bounding omega, min: -0.894028 max: 3251.62 average: 152.254
smoothSolver:  Solving for k, Initial residual = 0.377112, Final residual = 0.00226002, No Iterations 2
ExecutionTime = 0.030663 s  ClockTime = 0 s

Time = 8s

smoothSolver:  Solving for Ux, Initial residual = 0.0957999, Final residual = 0.00672294, No Iterations 4
smoothSolver:  Solving for Uy, Initial residual = 0.569878, Final residual = 0.0457538, No Iterations 2
Pressure gradient source: uncorrected Ubar = 0.874419, pressure gradient = 6.62568
GAMG:  Solving for p, Initial residual = 0.187085, Final residual = 0.0166859, No Iterations 11
time step continuity errors : sum local = 0.0882268, global = 6.01055e-17, cumulative = -3.06972e-16
Pressure gradient source: uncorrected Ubar = 0.989032, pressure gradient = 1.91387
smoothSolver:  Solving for omega, Initial residual = 0.272839, Final residual = 0.00235841, No Iterations 2
smoothSolver:  Solving for k, Initial residual = 0.264865, Final residual = 0.00484376, No Iterations 2
ExecutionTime = 0.033465 s  ClockTime = 0 s

Time = 9s

smoothSolver:  Solving for Ux, Initial residual = 0.11099, Final residual = 0.0101791, No Iterations 3
smoothSolver:  Solving for Uy, Initial residual = 0.576311, Final residual = 0.0536285, No Iterations 2
Pressure gradient source: uncorrected Ubar = 0.918463, pressure gradient = 6.01573
GAMG:  Solving for p, Initial residual = 0.258844, Final residual = 0.0186044, No Iterations 8
time step continuity errors : sum local = 0.100525, global = 6.02783e-17, cumulative = -2.46694e-16
Pressure gradient source: uncorrected Ubar = 0.98388, pressure gradient = 2.72483
smoothSolver:  Solving for omega, Initial residual = 0.210542, Final residual = 0.00266504, No Iterations 2
bounding omega, min: -6.95373 max: 3251.62 average: 135.473
smoothSolver:  Solving for k, Initial residual = 0.250049, Final residual = 0.0113049, No Iterations 2
ExecutionTime = 0.036124 s  ClockTime = 0 s

Time = 10s

smoothSolver:  Solving for Ux, Initial residual = 0.0853906, Final residual = 0.00753816, No Iterations 3
smoothSolver:  Solving for Uy, Initial residual = 0.555177, Final residual = 0.053406, No Iterations 2
Pressure gradient source: uncorrected Ubar = 0.877862, pressure gradient = 9.34363
GAMG:  Solving for p, Initial residual = 0.361209, Final residual = 0.0341175, No Iterations 4
time step continuity errors : sum local = 0.116463, global = -7.57586e-18, cumulative = -2.5427e-16
Pressure gradient source: uncorrected Ubar = 0.973696, pressure gradient = 4.15026
smoothSolver:  Solving for omega, Initial residual = 0.180406, Final residual = 0.00432372, No Iterations 2
bounding omega, min: -2.22947 max: 3251.62 average: 136.282
smoothSolver:  Solving for k, Initial residual = 0.194711, Final residual = 0.0156531, No Iterations 2
ExecutionTime = 0.038668 s  ClockTime = 0 s

Time = 11s

smoothSolver:  Solving for Ux, Initial residual = 0.0566667, Final residual = 0.00391919, No Iterations 4
smoothSolver:  Solving for Uy, Initial residual = 0.578663, Final residual = 0.0235794, No Iterations 3
Pressure gradient source: uncorrected Ubar = 0.900107, pressure gradient = 10.5147
GAMG:  Solving for p, Initial residual = 0.345751, Final residual = 0.0209269, No Iterations 8
time step continuity errors : sum local = 0.095536, global = -5.03069e-17, cumulative = -3.04577e-16
Pressure gradient source: uncorrected Ubar = 0.989047, pressure gradient = 4.84811
smoothSolver:  Solving for omega, Initial residual = 0.171236, Final residual = 0.00748212, No Iterations 2
bounding omega, min: -0.0179643 max: 3251.62 average: 142.495
smoothSolver:  Solving for k, Initial residual = 0.155961, Final residual = 0.00695126, No Iterations 3
ExecutionTime = 0.041384 s  ClockTime = 0 s

Time = 12s

smoothSolver:  Solving for Ux, Initial residual = 0.0370659, Final residual = 0.00269269, No Iterations 4
smoothSolver:  Solving for Uy, Initial residual = 0.501471, Final residual = 0.0175366, No Iterations 3
Pressure gradient source: uncorrected Ubar = 0.912364, pressure gradient = 10.9438
GAMG:  Solving for p, Initial residual = 0.224185, Final residual = 0.0214768, No Iterations 5
time step continuity errors : sum local = 0.112853, global = 4.8247e-18, cumulative = -2.99752e-16
Pressure gradient source: uncorrected Ubar = 0.992946, pressure gradient = 5.33878
smoothSolver:  Solving for omega, Initial residual = 0.17613, Final residual = 0.00868624, No Iterations 2
smoothSolver:  Solving for k, Initial residual = 0.127788, Final residual = 0.00850769, No Iterations 3
ExecutionTime = 0.043879 s  ClockTime = 0 s

Time = 13s

smoothSolver:  Solving for Ux, Initial residual = 0.0270925, Final residual = 0.00205028, No Iterations 4
smoothSolver:  Solving for Uy, Initial residual = 0.548111, Final residual = 0.0233655, No Iterations 3
Pressure gradient source: uncorrected Ubar = 0.952882, pressure gradient = 9.11994
GAMG:  Solving for p, Initial residual = 0.308934, Final residual = 0.0224617, No Iterations 8
time step continuity errors : sum local = 0.103721, global = 2.1684e-18, cumulative = -2.97584e-16
Pressure gradient source: uncorrected Ubar = 0.995248, pressure gradient = 5.72014
smoothSolver:  Solving for omega, Initial residual = 0.165872, Final residual = 0.00849247, No Iterations 2
smoothSolver:  Solving for k, Initial residual = 0.0830749, Final residual = 0.00662025, No Iterations 3
ExecutionTime = 0.046555 s  ClockTime = 0 s

Time = 14s

smoothSolver:  Solving for Ux, Initial residual = 0.0228442, Final residual = 0.00167951, No Iterations 4
smoothSolver:  Solving for Uy, Initial residual = 0.504622, Final residual = 0.0205513, No Iterations 3
Pressure gradient source: uncorrected Ubar = 0.94323, pressure gradient = 10.8679
GAMG:  Solving for p, Initial residual = 0.20352, Final residual = 0.0194509, No Iterations 10
time step continuity errors : sum local = 0.128446, global = -4.94396e-17, cumulative = -3.47023e-16
Pressure gradient source: uncorrected Ubar = 0.988316, pressure gradient = 6.77967
smoothSolver:  Solving for omega, Initial residual = 0.169938, Final residual = 0.00992439, No Iterations 2
smoothSolver:  Solving for k, Initial residual = 0.0649388, Final residual = 0.00511309, No Iterations 3
ExecutionTime = 0.049355 s  ClockTime = 0 s

Time = 15s

smoothSolver:  Solving for Ux, Initial residual = 0.0203204, Final residual = 0.00148893, No Iterations 4
smoothSolver:  Solving for Uy, Initial residual = 0.499617, Final residual = 0.0236707, No Iterations 3
Pressure gradient source: uncorrected Ubar = 0.946069, pressure gradient = 12.5828
GAMG:  Solving for p, Initial residual = 0.167095, Final residual = 0.0112698, No Iterations 8
time step continuity errors : sum local = 0.133627, global = 5.17164e-17, cumulative = -2.95307e-16
Pressure gradient source: uncorrected Ubar = 0.995392, pressure gradient = 7.27554
smoothSolver:  Solving for omega, Initial residual = 0.17308, Final residual = 0.00999555, No Iterations 2
smoothSolver:  Solving for k, Initial residual = 0.062141, Final residual = 0.00520829, No Iterations 3
ExecutionTime = 0.052002 s  ClockTime = 0 s

Time = 16s

smoothSolver:  Solving for Ux, Initial residual = 0.0186424, Final residual = 0.00133319, No Iterations 4
smoothSolver:  Solving for Uy, Initial residual = 0.335059, Final residual = 0.0182252, No Iterations 3
Pressure gradient source: uncorrected Ubar = 0.925755, pressure gradient = 15.9923
GAMG:  Solving for p, Initial residual = 0.31186, Final residual = 0.0292445, No Iterations 9
time step continuity errors : sum local = 0.164676, global = -7.13947e-17, cumulative = -3.66701e-16
Pressure gradient source: uncorrected Ubar = 1.0008, pressure gradient = 7.18201
smoothSolver:  Solving for omega, Initial residual = 0.162191, Final residual = 0.0118922, No Iterations 2
smoothSolver:  Solving for k, Initial residual = 0.0600897, Final residual = 0.00462284, No Iterations 3
ExecutionTime = 0.054708 s  ClockTime = 0 s

Time = 17s

smoothSolver:  Solving for Ux, Initial residual = 0.0168731, Final residual = 0.00125852, No Iterations 4
smoothSolver:  Solving for Uy, Initial residual = 0.401481, Final residual = 0.0226883, No Iterations 3
Pressure gradient source: uncorrected Ubar = 0.934222, pressure gradient = 15.9449
GAMG:  Solving for p, Initial residual = 0.1329, Final residual = 0.00828942, No Iterations 4
time step continuity errors : sum local = 0.109751, global = -2.39609e-17, cumulative = -3.90662e-16
Pressure gradient source: uncorrected Ubar = 0.993813, pressure gradient = 8.00625
smoothSolver:  Solving for omega, Initial residual = 0.12929, Final residual = 0.010549, No Iterations 2
smoothSolver:  Solving for k, Initial residual = 0.0562826, Final residual = 0.00478385, No Iterations 3
ExecutionTime = 0.057237 s  ClockTime = 0 s

Time = 18s

smoothSolver:  Solving for Ux, Initial residual = 0.0152356, Final residual = 0.00126452, No Iterations 4
smoothSolver:  Solving for Uy, Initial residual = 0.462546, Final residual = 0.0267864, No Iterations 3
Pressure gradient source: uncorrected Ubar = 0.982698, pressure gradient = 10.6121
GAMG:  Solving for p, Initial residual = 0.126208, Final residual = 0.00896252, No Iterations 8
time step continuity errors : sum local = 0.145197, global = -4.08744e-17, cumulative = -4.31537e-16
Pressure gradient source: uncorrected Ubar = 1.00427, pressure gradient = 7.36325
smoothSolver:  Solving for omega, Initial residual = 0.113883, Final residual = 0.0103641, No Iterations 2
smoothSolver:  Solving for k, Initial residual = 0.0538246, Final residual = 0.00345128, No Iterations 4
ExecutionTime = 0.059945 s  ClockTime = 0 s

Time = 19s

smoothSolver:  Solving for Ux, Initial residual = 0.0133822, Final residual = 0.00123313, No Iterations 4
smoothSolver:  Solving for Uy, Initial residual = 0.304734, Final residual = 0.0216685, No Iterations 3
Pressure gradient source: uncorrected Ubar = 0.959743, pressure gradient = 14.0919
GAMG:  Solving for p, Initial residual = 0.22729, Final residual = 0.0196694, No Iterations 8
time step continuity errors : sum local = 0.137154, global = 9.40003e-17, cumulative = -3.37536e-16
Pressure gradient source: uncorrected Ubar = 0.992401, pressure gradient = 8.63338
smoothSolver:  Solving for omega, Initial residual = 0.0960083, Final residual = 0.0050997, No Iterations 3
smoothSolver:  Solving for k, Initial residual = 0.0522741, Final residual = 0.00385082, No Iterations 4
ExecutionTime = 0.062659 s  ClockTime = 0 s

Time = 20s

smoothSolver:  Solving for Ux, Initial residual = 0.0128994, Final residual = 0.000833142, No Iterations 5
smoothSolver:  Solving for Uy, Initial residual = 0.381012, Final residual = 0.0224902, No Iterations 3
Pressure gradient source: uncorrected Ubar = 1.01624, pressure gradient = 5.59265
GAMG:  Solving for p, Initial residual = 0.214001, Final residual = 0.0183447, No Iterations 12
time step continuity errors : sum local = 0.0910162, global = 2.23786e-17, cumulative = -3.15158e-16
Pressure gradient source: uncorrected Ubar = 1.00302, pressure gradient = 8.06885
smoothSolver:  Solving for omega, Initial residual = 0.079954, Final residual = 0.00548853, No Iterations 3
smoothSolver:  Solving for k, Initial residual = 0.0517394, Final residual = 0.00462353, No Iterations 4
ExecutionTime = 0.065527 s  ClockTime = 0 s

Time = 21s

smoothSolver:  Solving for Ux, Initial residual = 0.0116204, Final residual = 0.000822406, No Iterations 5
smoothSolver:  Solving for Uy, Initial residual = 0.320627, Final residual = 0.0253551, No Iterations 3
Pressure gradient source: uncorrected Ubar = 0.983833, pressure gradient = 11.3901
GAMG:  Solving for p, Initial residual = 0.0837296, Final residual = 0.00728006, No Iterations 8
time step continuity errors : sum local = 0.110323, global = 2.11284e-17, cumulative = -2.94029e-16
Pressure gradient source: uncorrected Ubar = 0.995945, pressure gradient = 8.90183
smoothSolver:  Solving for omega, Initial residual = 0.0672821, Final residual = 0.00596681, No Iterations 3
smoothSolver:  Solving for k, Initial residual = 0.0496021, Final residual = 0.00480645, No Iterations 4
ExecutionTime = 0.068227 s  ClockTime = 0 s

Time = 22s

smoothSolver:  Solving for Ux, Initial residual = 0.0110536, Final residual = 0.000842371, No Iterations 5
smoothSolver:  Solving for Uy, Initial residual = 0.303461, Final residual = 0.0232822, No Iterations 3
Pressure gradient source: uncorrected Ubar = 1.00007, pressure gradient = 8.88627
GAMG:  Solving for p, Initial residual = 0.0578132, Final residual = 0.00505516, No Iterations 9
time step continuity errors : sum local = 0.118005, global = -1.11456e-16, cumulative = -4.05485e-16
Pressure gradient source: uncorrected Ubar = 0.999549, pressure gradient = 9.0016
smoothSolver:  Solving for omega, Initial residual = 0.0585897, Final residual = 0.00339301, No Iterations 4
smoothSolver:  Solving for k, Initial residual = 0.0471572, Final residual = 0.00302579, No Iterations 5
ExecutionTime = 0.070991 s  ClockTime = 0 s

Time = 23s

smoothSolver:  Solving for Ux, Initial residual = 0.0103446, Final residual = 0.00084231, No Iterations 5
smoothSolver:  Solving for Uy, Initial residual = 0.252182, Final residual = 0.0201279, No Iterations 3
Pressure gradient source: uncorrected Ubar = 1.00102, pressure gradient = 8.7533
GAMG:  Solving for p, Initial residual = 0.0472238, Final residual = 0.00463644, No Iterations 7
time step continuity errors : sum local = 0.121443, global = -6.31006e-17, cumulative = -4.68586e-16
Pressure gradient source: uncorrected Ubar = 0.999441, pressure gradient = 9.13797
smoothSolver:  Solving for omega, Initial residual = 0.0531088, Final residual = 0.0036438, No Iterations 4
smoothSolver:  Solving for k, Initial residual = 0.0458083, Final residual = 0.0033382, No Iterations 5
ExecutionTime = 0.073652 s  ClockTime = 0 s

Time = 24s

smoothSolver:  Solving for Ux, Initial residual = 0.0098477, Final residual = 0.000840374, No Iterations 5
smoothSolver:  Solving for Uy, Initial residual = 0.182063, Final residual = 0.0162382, No Iterations 3
Pressure gradient source: uncorrected Ubar = 1.00502, pressure gradient = 7.79154
GAMG:  Solving for p, Initial residual = 0.0380902, Final residual = 0.00331611, No Iterations 7
time step continuity errors : sum local = 0.095439, global = 1.30104e-16, cumulative = -3.38482e-16
Pressure gradient source: uncorrected Ubar = 1.00001, pressure gradient = 9.13583
smoothSolver:  Solving for omega, Initial residual = 0.0486739, Final residual = 0.0039402, No Iterations 4
smoothSolver:  Solving for k, Initial residual = 0.0437779, Final residual = 0.00359074, No Iterations 5
ExecutionTime = 0.076297 s  ClockTime = 0 s

Time = 25s

smoothSolver:  Solving for Ux, Initial residual = 0.00953191, Final residual = 0.000833728, No Iterations 5
smoothSolver:  Solving for Uy, Initial residual = 0.141755, Final residual = 0.00768022, No Iterations 4
Pressure gradient source: uncorrected Ubar = 1.01224, pressure gradient = 5.56905
GAMG:  Solving for p, Initial residual = 0.0280197, Final residual = 0.00252548, No Iterations 7
time step continuity errors : sum local = 0.0772188, global = 9.16083e-17, cumulative = -2.46873e-16
Pressure gradient source: uncorrected Ubar = 1.0023, pressure gradient = 8.46443
smoothSolver:  Solving for omega, Initial residual = 0.0460549, Final residual = 0.00408481, No Iterations 4
smoothSolver:  Solving for k, Initial residual = 0.040888, Final residual = 0.00351885, No Iterations 5
ExecutionTime = 0.07899 s  ClockTime = 0 s

Time = 26s

smoothSolver:  Solving for Ux, Initial residual = 0.00920649, Final residual = 0.000813714, No Iterations 5
smoothSolver:  Solving for Uy, Initial residual = 0.13064, Final residual = 0.00739453, No Iterations 4
Pressure gradient source: uncorrected Ubar = 1.00493, pressure gradient = 6.91245
GAMG:  Solving for p, Initial residual = 0.0227689, Final residual = 0.00218388, No Iterations 7
time step continuity errors : sum local = 0.0618392, global = 1.64365e-16, cumulative = -8.25083e-17
Pressure gradient source: uncorrected Ubar = 1.00046, pressure gradient = 8.32083
smoothSolver:  Solving for omega, Initial residual = 0.0459757, Final residual = 0.00427063, No Iterations 4
smoothSolver:  Solving for k, Initial residual = 0.0378535, Final residual = 0.00342166, No Iterations 5
ExecutionTime = 0.081669 s  ClockTime = 0 s

Time = 27s

smoothSolver:  Solving for Ux, Initial residual = 0.00897436, Final residual = 0.000800723, No Iterations 5
smoothSolver:  Solving for Uy, Initial residual = 0.117933, Final residual = 0.00720046, No Iterations 4
Pressure gradient source: uncorrected Ubar = 1.0114, pressure gradient = 4.47222
GAMG:  Solving for p, Initial residual = 0.0205056, Final residual = 0.00201769, No Iterations 8
time step continuity errors : sum local = 0.0474516, global = -3.30716e-17, cumulative = -1.1558e-16
Pressure gradient source: uncorrected Ubar = 1.00177, pressure gradient = 7.72221
smoothSolver:  Solving for omega, Initial residual = 0.0451919, Final residual = 0.0043643, No Iterations 4
smoothSolver:  Solving for k, Initial residual = 0.0353575, Final residual = 0.00335527, No Iterations 5
ExecutionTime = 0.084361 s  ClockTime = 0 s

Time = 28s

smoothSolver:  Solving for Ux, Initial residual = 0.00870787, Final residual = 0.000781288, No Iterations 5
smoothSolver:  Solving for Uy, Initial residual = 0.105898, Final residual = 0.00763352, No Iterations 4
Pressure gradient source: uncorrected Ubar = 1.00869, pressure gradient = 4.59651
GAMG:  Solving for p, Initial residual = 0.0187253, Final residual = 0.00174041, No Iterations 8
time step continuity errors : sum local = 0.0362433, global = 9.089e-17, cumulative = -2.46899e-17
Pressure gradient source: uncorrected Ubar = 1.00115, pressure gradient = 7.30864
smoothSolver:  Solving for omega, Initial residual = 0.0445168, Final residual = 0.00441857, No Iterations 4
smoothSolver:  Solving for k, Initial residual = 0.032798, Final residual = 0.00322927, No Iterations 5
ExecutionTime = 0.087051 s  ClockTime = 0 s

Time = 29s

smoothSolver:  Solving for Ux, Initial residual = 0.00847361, Final residual = 0.000762833, No Iterations 5
smoothSolver:  Solving for Uy, Initial residual = 0.100984, Final residual = 0.00756305, No Iterations 4
Pressure gradient source: uncorrected Ubar = 1.00679, pressure gradient = 4.71365
GAMG:  Solving for p, Initial residual = 0.019818, Final residual = 0.00193309, No Iterations 7
time step continuity errors : sum local = 0.0287853, global = 2.58311e-17, cumulative = 1.14125e-18
Pressure gradient source: uncorrected Ubar = 1.00079, pressure gradient = 7.00578
smoothSolver:  Solving for omega, Initial residual = 0.0424072, Final residual = 0.00277289, No Iterations 5
smoothSolver:  Solving for k, Initial residual = 0.0306451, Final residual = 0.00199798, No Iterations 6
ExecutionTime = 0.08982 s  ClockTime = 0 s

Time = 30s

smoothSolver:  Solving for Ux, Initial residual = 0.0082595, Final residual = 0.000744791, No Iterations 5
smoothSolver:  Solving for Uy, Initial residual = 0.094266, Final residual = 0.00733114, No Iterations 4
Pressure gradient source: uncorrected Ubar = 1.00493, pressure gradient = 5.002
GAMG:  Solving for p, Initial residual = 0.0283215, Final residual = 0.00279458, No Iterations 7
time step continuity errors : sum local = 0.0271656, global = -5.48132e-17, cumulative = -5.36719e-17
Pressure gradient source: uncorrected Ubar = 1.00056, pressure gradient = 6.77746
smoothSolver:  Solving for omega, Initial residual = 0.0399652, Final residual = 0.00276145, No Iterations 5
smoothSolver:  Solving for k, Initial residual = 0.0285805, Final residual = 0.00190138, No Iterations 6
ExecutionTime = 0.092479 s  ClockTime = 0 s

Time = 31s

smoothSolver:  Solving for Ux, Initial residual = 0.00805593, Final residual = 0.000727743, No Iterations 5
smoothSolver:  Solving for Uy, Initial residual = 0.0861624, Final residual = 0.00741889, No Iterations 4
Pressure gradient source: uncorrected Ubar = 1.00303, pressure gradient = 5.45993
GAMG:  Solving for p, Initial residual = 0.0682631, Final residual = 0.00505032, No Iterations 8
time step continuity errors : sum local = 0.0208626, global = -4.42354e-17, cumulative = -9.79074e-17
Pressure gradient source: uncorrected Ubar = 1.00029, pressure gradient = 6.65082
smoothSolver:  Solving for omega, Initial residual = 0.0378481, Final residual = 0.00281891, No Iterations 5
smoothSolver:  Solving for k, Initial residual = 0.026883, Final residual = 0.00184587, No Iterations 6
ExecutionTime = 0.095217 s  ClockTime = 0 s

Time = 32s

smoothSolver:  Solving for Ux, Initial residual = 0.00785984, Final residual = 0.000711193, No Iterations 5
smoothSolver:  Solving for Uy, Initial residual = 0.0753724, Final residual = 0.00708797, No Iterations 4
Pressure gradient source: uncorrected Ubar = 1.00109, pressure gradient = 6.14707
GAMG:  Solving for p, Initial residual = 0.0363348, Final residual = 0.00290566, No Iterations 8
time step continuity errors : sum local = 0.0200583, global = -1.33348e-17, cumulative = -1.11242e-16
Pressure gradient source: uncorrected Ubar = 1.00001, pressure gradient = 6.64787
smoothSolver:  Solving for omega, Initial residual = 0.0355036, Final residual = 0.00280729, No Iterations 5
smoothSolver:  Solving for k, Initial residual = 0.0252627, Final residual = 0.00178561, No Iterations 6
ExecutionTime = 0.097971 s  ClockTime = 0 s

Time = 33s

smoothSolver:  Solving for Ux, Initial residual = 0.00766871, Final residual = 0.000694463, No Iterations 5
smoothSolver:  Solving for Uy, Initial residual = 0.0636458, Final residual = 0.00389926, No Iterations 5
Pressure gradient source: uncorrected Ubar = 0.999687, pressure gradient = 6.80334
GAMG:  Solving for p, Initial residual = 0.0174673, Final residual = 0.00153403, No Iterations 7
time step continuity errors : sum local = 0.018551, global = -1.0859e-18, cumulative = -1.12328e-16
Pressure gradient source: uncorrected Ubar = 0.999776, pressure gradient = 6.75905
smoothSolver:  Solving for omega, Initial residual = 0.0339368, Final residual = 0.00286403, No Iterations 5
smoothSolver:  Solving for k, Initial residual = 0.0237404, Final residual = 0.00170501, No Iterations 6
ExecutionTime = 0.100649 s  ClockTime = 0 s

Time = 34s

smoothSolver:  Solving for Ux, Initial residual = 0.0074791, Final residual = 0.000676204, No Iterations 5
smoothSolver:  Solving for Uy, Initial residual = 0.0521636, Final residual = 0.00344392, No Iterations 5
Pressure gradient source: uncorrected Ubar = 0.999005, pressure gradient = 7.28777
GAMG:  Solving for p, Initial residual = 0.010672, Final residual = 0.000927945, No Iterations 7
time step continuity errors : sum local = 0.0150351, global = -6.27753e-17, cumulative = -1.75103e-16
Pressure gradient source: uncorrected Ubar = 0.999666, pressure gradient = 6.9367
smoothSolver:  Solving for omega, Initial residual = 0.03203, Final residual = 0.00275191, No Iterations 5
smoothSolver:  Solving for k, Initial residual = 0.0222564, Final residual = 0.00162687, No Iterations 6
ExecutionTime = 0.103334 s  ClockTime = 0 s

Time = 35s

smoothSolver:  Solving for Ux, Initial residual = 0.00720262, Final residual = 0.000648569, No Iterations 5
smoothSolver:  Solving for Uy, Initial residual = 0.0454157, Final residual = 0.00328252, No Iterations 5
Pressure gradient source: uncorrected Ubar = 0.99773, pressure gradient = 8.23501
GAMG:  Solving for p, Initial residual = 0.00720013, Final residual = 0.000598219, No Iterations 11
time step continuity errors : sum local = 0.011682, global = 4.94396e-17, cumulative = -1.25664e-16
Pressure gradient source: uncorrected Ubar = 0.999471, pressure gradient = 7.23927
smoothSolver:  Solving for omega, Initial residual = 0.0303028, Final residual = 0.00268127, No Iterations 5
smoothSolver:  Solving for k, Initial residual = 0.0205082, Final residual = 0.00151687, No Iterations 6
ExecutionTime = 0.106274 s  ClockTime = 0 s

Time = 36s

smoothSolver:  Solving for Ux, Initial residual = 0.00691405, Final residual = 0.000620329, No Iterations 5
smoothSolver:  Solving for Uy, Initial residual = 0.0423624, Final residual = 0.0032616, No Iterations 5
Pressure gradient source: uncorrected Ubar = 0.997719, pressure gradient = 8.65117
GAMG:  Solving for p, Initial residual = 0.00522758, Final residual = 0.000508472, No Iterations 9
time step continuity errors : sum local = 0.010745, global = -6.35334e-17, cumulative = -1.89197e-16
Pressure gradient source: uncorrected Ubar = 0.999458, pressure gradient = 7.5749
smoothSolver:  Solving for omega, Initial residual = 0.0286046, Final residual = 0.00263198, No Iterations 5
smoothSolver:  Solving for k, Initial residual = 0.0187287, Final residual = 0.00140217, No Iterations 6
ExecutionTime = 0.10912 s  ClockTime = 0 s

Time = 37s

smoothSolver:  Solving for Ux, Initial residual = 0.00666269, Final residual = 0.000594734, No Iterations 5
smoothSolver:  Solving for Uy, Initial residual = 0.0384258, Final residual = 0.0030908, No Iterations 5
Pressure gradient source: uncorrected Ubar = 0.998929, pressure gradient = 8.29209
GAMG:  Solving for p, Initial residual = 0.00397759, Final residual = 0.000388399, No Iterations 9
time step continuity errors : sum local = 0.00843261, global = -1.09504e-17, cumulative = -2.00148e-16
Pressure gradient source: uncorrected Ubar = 0.999657, pressure gradient = 7.80445
smoothSolver:  Solving for omega, Initial residual = 0.026535, Final residual = 0.00252045, No Iterations 5
smoothSolver:  Solving for k, Initial residual = 0.0171426, Final residual = 0.00129343, No Iterations 6
ExecutionTime = 0.111903 s  ClockTime = 0 s

Time = 38s

smoothSolver:  Solving for Ux, Initial residual = 0.00644895, Final residual = 0.000571513, No Iterations 5
smoothSolver:  Solving for Uy, Initial residual = 0.0342505, Final residual = 0.00287074, No Iterations 5
Pressure gradient source: uncorrected Ubar = 0.999796, pressure gradient = 7.95136
GAMG:  Solving for p, Initial residual = 0.00292524, Final residual = 0.000265393, No Iterations 9
time step continuity errors : sum local = 0.00580627, global = -3.64834e-17, cumulative = -2.36631e-16
Pressure gradient source: uncorrected Ubar = 0.999798, pressure gradient = 7.9499
smoothSolver:  Solving for omega, Initial residual = 0.0252125, Final residual = 0.00246252, No Iterations 5
smoothSolver:  Solving for k, Initial residual = 0.0156553, Final residual = 0.00119215, No Iterations 6
ExecutionTime = 0.114739 s  ClockTime = 0 s

Time = 39s

smoothSolver:  Solving for Ux, Initial residual = 0.00625535, Final residual = 0.000550243, No Iterations 5
smoothSolver:  Solving for Uy, Initial residual = 0.0306292, Final residual = 0.00268963, No Iterations 5
Pressure gradient source: uncorrected Ubar = 1.00059, pressure gradient = 7.49464
GAMG:  Solving for p, Initial residual = 0.00218437, Final residual = 0.000205982, No Iterations 7
time step continuity errors : sum local = 0.00431151, global = 2.00577e-17, cumulative = -2.16573e-16
Pressure gradient source: uncorrected Ubar = 0.999935, pressure gradient = 7.99989
smoothSolver:  Solving for omega, Initial residual = 0.0235842, Final residual = 0.00234975, No Iterations 5
smoothSolver:  Solving for k, Initial residual = 0.0143539, Final residual = 0.0010994, No Iterations 6
ExecutionTime = 0.117439 s  ClockTime = 0 s

Time = 40s

smoothSolver:  Solving for Ux, Initial residual = 0.00607493, Final residual = 0.000531409, No Iterations 5
smoothSolver:  Solving for Uy, Initial residual = 0.0275658, Final residual = 0.00254338, No Iterations 5
Pressure gradient source: uncorrected Ubar = 1.00092, pressure gradient = 7.24553
GAMG:  Solving for p, Initial residual = 0.0017027, Final residual = 0.000133689, No Iterations 5
time step continuity errors : sum local = 0.00253374, global = -9.60603e-17, cumulative = -3.12634e-16
Pressure gradient source: uncorrected Ubar = 0.999992, pressure gradient = 8.00672
smoothSolver:  Solving for omega, Initial residual = 0.0222889, Final residual = 0.0014632, No Iterations 6
smoothSolver:  Solving for k, Initial residual = 0.0131388, Final residual = 0.00100656, No Iterations 6
ExecutionTime = 0.120171 s  ClockTime = 0 s

Time = 41s

smoothSolver:  Solving for Ux, Initial residual = 0.00590626, Final residual = 0.000514529, No Iterations 5
smoothSolver:  Solving for Uy, Initial residual = 0.0255088, Final residual = 0.00244836, No Iterations 5
Pressure gradient source: uncorrected Ubar = 1.00099, pressure gradient = 7.1566
GAMG:  Solving for p, Initial residual = 0.00148503, Final residual = 0.000143246, No Iterations 4
time step continuity errors : sum local = 0.00242848, global = -1.17744e-16, cumulative = -4.30377e-16
Pressure gradient source: uncorrected Ubar = 1.00001, pressure gradient = 7.99845
smoothSolver:  Solving for omega, Initial residual = 0.0210852, Final residual = 0.0014074, No Iterations 6
smoothSolver:  Solving for k, Initial residual = 0.0120731, Final residual = 0.000911231, No Iterations 6
ExecutionTime = 0.122738 s  ClockTime = 0 s

Time = 42s

smoothSolver:  Solving for Ux, Initial residual = 0.00575269, Final residual = 0.000500094, No Iterations 5
smoothSolver:  Solving for Uy, Initial residual = 0.0244246, Final residual = 0.00242569, No Iterations 5
Pressure gradient source: uncorrected Ubar = 1.00116, pressure gradient = 6.94707
GAMG:  Solving for p, Initial residual = 0.00123273, Final residual = 0.000106163, No Iterations 3
time step continuity errors : sum local = 0.00159289, global = 1.40133e-16, cumulative = -2.90244e-16
Pressure gradient source: uncorrected Ubar = 1.00004, pressure gradient = 7.96579
smoothSolver:  Solving for omega, Initial residual = 0.0196943, Final residual = 0.00133771, No Iterations 6
smoothSolver:  Solving for k, Initial residual = 0.0111868, Final residual = 0.000851118, No Iterations 6
ExecutionTime = 0.125248 s  ClockTime = 0 s

Time = 43s

smoothSolver:  Solving for Ux, Initial residual = 0.00561399, Final residual = 0.000487586, No Iterations 5
smoothSolver:  Solving for Uy, Initial residual = 0.0238318, Final residual = 0.00157653, No Iterations 6
Pressure gradient source: uncorrected Ubar = 1.00107, pressure gradient = 6.95266
GAMG:  Solving for p, Initial residual = 0.00113706, Final residual = 0.000103832, No Iterations 3
time step continuity errors : sum local = 0.00128935, global = 1.15359e-16, cumulative = -1.74885e-16
Pressure gradient source: uncorrected Ubar = 1.00003, pressure gradient = 7.94116
smoothSolver:  Solving for omega, Initial residual = 0.0186377, Final residual = 0.00128271, No Iterations 6
smoothSolver:  Solving for k, Initial residual = 0.0104142, Final residual = 0.000795695, No Iterations 6
ExecutionTime = 0.127785 s  ClockTime = 0 s

Time = 44s

smoothSolver:  Solving for Ux, Initial residual = 0.00548785, Final residual = 0.000476601, No Iterations 5
smoothSolver:  Solving for Uy, Initial residual = 0.0231801, Final residual = 0.00157022, No Iterations 6
Pressure gradient source: uncorrected Ubar = 1.00109, pressure gradient = 6.862
GAMG:  Solving for p, Initial residual = 0.00104238, Final residual = 8.87626e-05, No Iterations 5
time step continuity errors : sum local = 0.000960703, global = -5.63949e-18, cumulative = -1.80524e-16
Pressure gradient source: uncorrected Ubar = 1.00003, pressure gradient = 7.91009
smoothSolver:  Solving for omega, Initial residual = 0.0174358, Final residual = 0.00121273, No Iterations 6
smoothSolver:  Solving for k, Initial residual = 0.00970309, Final residual = 0.00074614, No Iterations 6
ExecutionTime = 0.130393 s  ClockTime = 0 s

Time = 45s

smoothSolver:  Solving for Ux, Initial residual = 0.0053731, Final residual = 0.000466953, No Iterations 5
smoothSolver:  Solving for Uy, Initial residual = 0.0229831, Final residual = 0.00156642, No Iterations 6
Pressure gradient source: uncorrected Ubar = 1.00111, pressure gradient = 6.76348
GAMG:  Solving for p, Initial residual = 0.00093731, Final residual = 8.85238e-05, No Iterations 5
time step continuity errors : sum local = 0.000881461, global = 1.21431e-17, cumulative = -1.68381e-16
Pressure gradient source: uncorrected Ubar = 1.00004, pressure gradient = 7.8714
smoothSolver:  Solving for omega, Initial residual = 0.0165393, Final residual = 0.00116236, No Iterations 6
smoothSolver:  Solving for k, Initial residual = 0.00908891, Final residual = 0.000701174, No Iterations 6
ExecutionTime = 0.133006 s  ClockTime = 0 s

Time = 46s

smoothSolver:  Solving for Ux, Initial residual = 0.00526821, Final residual = 0.000458492, No Iterations 5
smoothSolver:  Solving for Uy, Initial residual = 0.0228388, Final residual = 0.00157615, No Iterations 6
Pressure gradient source: uncorrected Ubar = 1.00112, pressure gradient = 6.67507
GAMG:  Solving for p, Initial residual = 0.000823051, Final residual = 7.00251e-05, No Iterations 6
time step continuity errors : sum local = 0.00073003, global = 3.3285e-17, cumulative = -1.35096e-16
Pressure gradient source: uncorrected Ubar = 1.00004, pressure gradient = 7.82842
smoothSolver:  Solving for omega, Initial residual = 0.0154318, Final residual = 0.00108587, No Iterations 6
smoothSolver:  Solving for k, Initial residual = 0.00852888, Final residual = 0.000662383, No Iterations 6
ExecutionTime = 0.135651 s  ClockTime = 0 s

Time = 47s

smoothSolver:  Solving for Ux, Initial residual = 0.00517124, Final residual = 0.000450974, No Iterations 5
smoothSolver:  Solving for Uy, Initial residual = 0.0230074, Final residual = 0.00160568, No Iterations 6
Pressure gradient source: uncorrected Ubar = 1.00111, pressure gradient = 6.5863
GAMG:  Solving for p, Initial residual = 0.000739821, Final residual = 5.95375e-05, No Iterations 8
time step continuity errors : sum local = 0.000643525, global = -3.12521e-17, cumulative = -1.66348e-16
Pressure gradient source: uncorrected Ubar = 1.00004, pressure gradient = 7.78179
smoothSolver:  Solving for omega, Initial residual = 0.0146764, Final residual = 0.00104344, No Iterations 6
smoothSolver:  Solving for k, Initial residual = 0.00803697, Final residual = 0.000626994, No Iterations 6
ExecutionTime = 0.138433 s  ClockTime = 0 s

Time = 48s

smoothSolver:  Solving for Ux, Initial residual = 0.00508055, Final residual = 0.000444195, No Iterations 5
smoothSolver:  Solving for Uy, Initial residual = 0.0233826, Final residual = 0.00164721, No Iterations 6
Pressure gradient source: uncorrected Ubar = 1.00109, pressure gradient = 6.52391
GAMG:  Solving for p, Initial residual = 0.000652732, Final residual = 6.04271e-05, No Iterations 9
time step continuity errors : sum local = 0.000628196, global = 1.94885e-17, cumulative = -1.4686e-16
Pressure gradient source: uncorrected Ubar = 1.00004, pressure gradient = 7.73636
smoothSolver:  Solving for omega, Initial residual = 0.0137839, Final residual = 0.000974133, No Iterations 6
smoothSolver:  Solving for k, Initial residual = 0.00759754, Final residual = 0.000596596, No Iterations 6
ExecutionTime = 0.141232 s  ClockTime = 0 s

Time = 49s

smoothSolver:  Solving for Ux, Initial residual = 0.00499562, Final residual = 0.000437995, No Iterations 5
smoothSolver:  Solving for Uy, Initial residual = 0.0236089, Final residual = 0.00167707, No Iterations 6
Pressure gradient source: uncorrected Ubar = 1.00107, pressure gradient = 6.45476
GAMG:  Solving for p, Initial residual = 0.000598608, Final residual = 5.6157e-05, No Iterations 11
time step continuity errors : sum local = 0.000566684, global = -1.50704e-17, cumulative = -1.6193e-16
Pressure gradient source: uncorrected Ubar = 1.00004, pressure gradient = 7.69083
smoothSolver:  Solving for omega, Initial residual = 0.0132445, Final residual = 0.000942735, No Iterations 6
smoothSolver:  Solving for k, Initial residual = 0.00718477, Final residual = 0.000564859, No Iterations 6
ExecutionTime = 0.144093 s  ClockTime = 0 s

Time = 50s

smoothSolver:  Solving for Ux, Initial residual = 0.00491657, Final residual = 0.000432346, No Iterations 5
smoothSolver:  Solving for Uy, Initial residual = 0.0236654, Final residual = 0.00169294, No Iterations 6
Pressure gradient source: uncorrected Ubar = 1.00103, pressure gradient = 6.4085
GAMG:  Solving for p, Initial residual = 0.000568498, Final residual = 5.62869e-05, No Iterations 11
time step continuity errors : sum local = 0.00054636, global = -4.81927e-17, cumulative = -2.10123e-16
Pressure gradient source: uncorrected Ubar = 1.00003, pressure gradient = 7.64938
smoothSolver:  Solving for omega, Initial residual = 0.0125495, Final residual = 0.000884991, No Iterations 6
smoothSolver:  Solving for k, Initial residual = 0.00682515, Final residual = 0.000538856, No Iterations 6
ExecutionTime = 0.146989 s  ClockTime = 0 s

Time = 51s

smoothSolver:  Solving for Ux, Initial residual = 0.00484265, Final residual = 0.000427073, No Iterations 5
smoothSolver:  Solving for Uy, Initial residual = 0.0235659, Final residual = 0.00169831, No Iterations 6
Pressure gradient source: uncorrected Ubar = 1.00101, pressure gradient = 6.34114
GAMG:  Solving for p, Initial residual = 0.000570495, Final residual = 5.41731e-05, No Iterations 11
time step continuity errors : sum local = 0.000504589, global = 6.53231e-17, cumulative = -1.448e-16
Pressure gradient source: uncorrected Ubar = 1.00003, pressure gradient = 7.60893
smoothSolver:  Solving for omega, Initial residual = 0.012124, Final residual = 0.000858632, No Iterations 6
smoothSolver:  Solving for k, Initial residual = 0.00649612, Final residual = 0.000510716, No Iterations 6
ExecutionTime = 0.149866 s  ClockTime = 0 s

Time = 52s

smoothSolver:  Solving for Ux, Initial residual = 0.0047731, Final residual = 0.00042221, No Iterations 5
smoothSolver:  Solving for Uy, Initial residual = 0.0233934, Final residual = 0.00169928, No Iterations 6
Pressure gradient source: uncorrected Ubar = 1.00098, pressure gradient = 6.29902
GAMG:  Solving for p, Initial residual = 0.000587237, Final residual = 5.02694e-05, No Iterations 11
time step continuity errors : sum local = 0.000446727, global = 2.39879e-17, cumulative = -1.20812e-16
Pressure gradient source: uncorrected Ubar = 1.00003, pressure gradient = 7.57434
smoothSolver:  Solving for omega, Initial residual = 0.0115585, Final residual = 0.000807072, No Iterations 6
smoothSolver:  Solving for k, Initial residual = 0.00623359, Final residual = 0.000488741, No Iterations 6
ExecutionTime = 0.152744 s  ClockTime = 0 s

Time = 53s

smoothSolver:  Solving for Ux, Initial residual = 0.00470723, Final residual = 0.000417538, No Iterations 5
smoothSolver:  Solving for Uy, Initial residual = 0.0232029, Final residual = 0.00170039, No Iterations 6
Pressure gradient source: uncorrected Ubar = 1.00095, pressure gradient = 6.25251
GAMG:  Solving for p, Initial residual = 0.000629804, Final residual = 5.55843e-05, No Iterations 10
time step continuity errors : sum local = 0.000477336, global = 1.31324e-16, cumulative = 1.0512e-17
Pressure gradient source: uncorrected Ubar = 1.00002, pressure gradient = 7.54558
smoothSolver:  Solving for omega, Initial residual = 0.0112074, Final residual = 0.000783814, No Iterations 6
smoothSolver:  Solving for k, Initial residual = 0.00600056, Final residual = 0.000466402, No Iterations 6
ExecutionTime = 0.155588 s  ClockTime = 0 s

Time = 54s

smoothSolver:  Solving for Ux, Initial residual = 0.00464495, Final residual = 0.00041316, No Iterations 5
smoothSolver:  Solving for Uy, Initial residual = 0.0232187, Final residual = 0.00171507, No Iterations 6
Pressure gradient source: uncorrected Ubar = 1.00094, pressure gradient = 6.1884
GAMG:  Solving for p, Initial residual = 0.000704253, Final residual = 6.37027e-05, No Iterations 8
time step continuity errors : sum local = 0.000506896, global = 4.65121e-17, cumulative = 5.70241e-17
Pressure gradient source: uncorrected Ubar = 1.00002, pressure gradient = 7.52083
smoothSolver:  Solving for omega, Initial residual = 0.0107523, Final residual = 0.000742949, No Iterations 6
smoothSolver:  Solving for k, Initial residual = 0.00580916, Final residual = 0.000445267, No Iterations 6
ExecutionTime = 0.15837 s  ClockTime = 0 s

Time = 55s

smoothSolver:  Solving for Ux, Initial residual = 0.00458635, Final residual = 0.000408899, No Iterations 5
smoothSolver:  Solving for Uy, Initial residual = 0.0232828, Final residual = 0.00172916, No Iterations 6
Pressure gradient source: uncorrected Ubar = 1.00091, pressure gradient = 6.15246
GAMG:  Solving for p, Initial residual = 0.000785082, Final residual = 7.58808e-05, No Iterations 6
time step continuity errors : sum local = 0.000547225, global = 1.66425e-17, cumulative = 7.36666e-17
Pressure gradient source: uncorrected Ubar = 1.00001, pressure gradient = 7.50539
smoothSolver:  Solving for omega, Initial residual = 0.0103434, Final residual = 0.000722024, No Iterations 6
smoothSolver:  Solving for k, Initial residual = 0.00564547, Final residual = 0.000427763, No Iterations 6
ExecutionTime = 0.161051 s  ClockTime = 0 s

Time = 56s

smoothSolver:  Solving for Ux, Initial residual = 0.00452926, Final residual = 0.000404864, No Iterations 5
smoothSolver:  Solving for Uy, Initial residual = 0.0233832, Final residual = 0.00174217, No Iterations 6
Pressure gradient source: uncorrected Ubar = 1.00092, pressure gradient = 6.07339
GAMG:  Solving for p, Initial residual = 0.000934406, Final residual = 8.03722e-05, No Iterations 6
time step continuity errors : sum local = 0.000528487, global = -6.23417e-18, cumulative = 6.74324e-17
Pressure gradient source: uncorrected Ubar = 1.00001, pressure gradient = 7.49056
smoothSolver:  Solving for omega, Initial residual = 0.00977565, Final residual = 0.000688479, No Iterations 6
smoothSolver:  Solving for k, Initial residual = 0.00555875, Final residual = 0.000417711, No Iterations 6
ExecutionTime = 0.163687 s  ClockTime = 0 s

Time = 57s

smoothSolver:  Solving for Ux, Initial residual = 0.00447555, Final residual = 0.000400906, No Iterations 5
smoothSolver:  Solving for Uy, Initial residual = 0.0235941, Final residual = 0.00176476, No Iterations 6
Pressure gradient source: uncorrected Ubar = 1.00091, pressure gradient = 6.00974
GAMG:  Solving for p, Initial residual = 0.00112568, Final residual = 0.000106046, No Iterations 4
time step continuity errors : sum local = 0.000600312, global = 6.1935e-17, cumulative = 1.29367e-16
Pressure gradient source: uncorrected Ubar = 1.00001, pressure gradient = 7.48047
smoothSolver:  Solving for omega, Initial residual = 0.0108453, Final residual = 0.000950006, No Iterations 5
smoothSolver:  Solving for k, Initial residual = 0.00556058, Final residual = 0.000407751, No Iterations 6
ExecutionTime = 0.166269 s  ClockTime = 0 s

Time = 58s

smoothSolver:  Solving for Ux, Initial residual = 0.00443332, Final residual = 0.000397841, No Iterations 5
smoothSolver:  Solving for Uy, Initial residual = 0.0240707, Final residual = 0.00178561, No Iterations 6
Pressure gradient source: uncorrected Ubar = 1.00044, pressure gradient = 6.75142
GAMG:  Solving for p, Initial residual = 0.00609535, Final residual = 0.000181445, No Iterations 3
time step continuity errors : sum local = 0.000754673, global = 4.62413e-17, cumulative = 1.75609e-16
Pressure gradient source: uncorrected Ubar = 0.999955, pressure gradient = 7.55573
smoothSolver:  Solving for omega, Initial residual = 0.0185601, Final residual = 0.00125842, No Iterations 4
smoothSolver:  Solving for k, Initial residual = 0.00559681, Final residual = 0.000403466, No Iterations 6
ExecutionTime = 0.168767 s  ClockTime = 0 s

Time = 59s

smoothSolver:  Solving for Ux, Initial residual = 0.00439899, Final residual = 0.000395948, No Iterations 5
smoothSolver:  Solving for Uy, Initial residual = 0.0245886, Final residual = 0.00182493, No Iterations 6
Pressure gradient source: uncorrected Ubar = 1.00105, pressure gradient = 5.83293
GAMG:  Solving for p, Initial residual = 0.00564081, Final residual = 0.000485713, No Iterations 3
time step continuity errors : sum local = 0.00194166, global = 3.03581e-17, cumulative = 2.05967e-16
Pressure gradient source: uncorrected Ubar = 1.00008, pressure gradient = 7.42275
smoothSolver:  Solving for omega, Initial residual = 0.0271655, Final residual = 0.00191455, No Iterations 3
smoothSolver:  Solving for k, Initial residual = 0.00540236, Final residual = 0.000400343, No Iterations 6
ExecutionTime = 0.171284 s  ClockTime = 0 s

Time = 60s

smoothSolver:  Solving for Ux, Initial residual = 0.00434979, Final residual = 0.000394109, No Iterations 5
smoothSolver:  Solving for Uy, Initial residual = 0.0239614, Final residual = 0.0017679, No Iterations 6
Pressure gradient source: uncorrected Ubar = 1.0025, pressure gradient = 3.28093
GAMG:  Solving for p, Initial residual = 0.00374936, Final residual = 0.000269209, No Iterations 5
time step continuity errors : sum local = 0.00205183, global = 2.94903e-17, cumulative = 2.35457e-16
Pressure gradient source: uncorrected Ubar = 1.00031, pressure gradient = 6.91357
smoothSolver:  Solving for omega, Initial residual = 0.0232964, Final residual = 0.00213384, No Iterations 3
smoothSolver:  Solving for k, Initial residual = 0.005205, Final residual = 0.000398745, No Iterations 6
ExecutionTime = 0.173866 s  ClockTime = 0 s

Time = 61s

smoothSolver:  Solving for Ux, Initial residual = 0.00429933, Final residual = 0.000392064, No Iterations 5
smoothSolver:  Solving for Uy, Initial residual = 0.0225644, Final residual = 0.00171311, No Iterations 6
Pressure gradient source: uncorrected Ubar = 1.00126, pressure gradient = 4.73879
GAMG:  Solving for p, Initial residual = 0.00277751, Final residual = 0.000188775, No Iterations 3
time step continuity errors : sum local = 0.00105411, global = 3.29597e-17, cumulative = 2.68417e-16
Pressure gradient source: uncorrected Ubar = 1.00008, pressure gradient = 6.7819
smoothSolver:  Solving for omega, Initial residual = 0.0126536, Final residual = 0.000934246, No Iterations 5
smoothSolver:  Solving for k, Initial residual = 0.00520287, Final residual = 0.000398371, No Iterations 6
ExecutionTime = 0.176382 s  ClockTime = 0 s

Time = 62s

smoothSolver:  Solving for Ux, Initial residual = 0.00425806, Final residual = 0.000388874, No Iterations 5
smoothSolver:  Solving for Uy, Initial residual = 0.0235114, Final residual = 0.00179487, No Iterations 6
Pressure gradient source: uncorrected Ubar = 1.00043, pressure gradient = 6.00931
GAMG:  Solving for p, Initial residual = 0.00280284, Final residual = 8.38099e-05, No Iterations 3
time step continuity errors : sum local = 0.000341894, global = -1.33493e-17, cumulative = 2.55068e-16
Pressure gradient source: uncorrected Ubar = 0.999947, pressure gradient = 6.87666
smoothSolver:  Solving for omega, Initial residual = 0.00945808, Final residual = 0.000884407, No Iterations 5
smoothSolver:  Solving for k, Initial residual = 0.0051949, Final residual = 0.000394121, No Iterations 6
ExecutionTime = 0.178905 s  ClockTime = 0 s

Time = 63s

smoothSolver:  Solving for Ux, Initial residual = 0.00421334, Final residual = 0.000385104, No Iterations 5
smoothSolver:  Solving for Uy, Initial residual = 0.0250685, Final residual = 0.00189824, No Iterations 6
Pressure gradient source: uncorrected Ubar = 1.00028, pressure gradient = 6.34742
GAMG:  Solving for p, Initial residual = 0.00270155, Final residual = 0.000202548, No Iterations 3
time step continuity errors : sum local = 0.000839272, global = 5.01986e-17, cumulative = 3.05266e-16
Pressure gradient source: uncorrected Ubar = 0.999924, pressure gradient = 7.01928
smoothSolver:  Solving for omega, Initial residual = 0.0144644, Final residual = 0.00120153, No Iterations 4
smoothSolver:  Solving for k, Initial residual = 0.00533195, Final residual = 0.000393237, No Iterations 6
ExecutionTime = 0.181413 s  ClockTime = 0 s

Time = 64s

smoothSolver:  Solving for Ux, Initial residual = 0.00418212, Final residual = 0.000382607, No Iterations 5
smoothSolver:  Solving for Uy, Initial residual = 0.0272663, Final residual = 0.00202678, No Iterations 6
Pressure gradient source: uncorrected Ubar = 0.999832, pressure gradient = 7.33535
GAMG:  Solving for p, Initial residual = 0.00810665, Final residual = 0.000333646, No Iterations 3
time step continuity errors : sum local = 0.00121269, global = -1.19804e-17, cumulative = 2.93286e-16
Pressure gradient source: uncorrected Ubar = 0.999884, pressure gradient = 7.2374
smoothSolver:  Solving for omega, Initial residual = 0.0267044, Final residual = 0.00245954, No Iterations 2
smoothSolver:  Solving for k, Initial residual = 0.0054409, Final residual = 0.000394058, No Iterations 6
ExecutionTime = 0.183891 s  ClockTime = 0 s

Time = 65s

smoothSolver:  Solving for Ux, Initial residual = 0.00416433, Final residual = 0.000382143, No Iterations 5
smoothSolver:  Solving for Uy, Initial residual = 0.0293075, Final residual = 0.00218989, No Iterations 6
Pressure gradient source: uncorrected Ubar = 1.00173, pressure gradient = 4.07816
GAMG:  Solving for p, Initial residual = 0.00811417, Final residual = 0.000710783, No Iterations 3
time step continuity errors : sum local = 0.0020211, global = 7.69741e-18, cumulative = 3.00983e-16
Pressure gradient source: uncorrected Ubar = 1.00021, pressure gradient = 6.85448
smoothSolver:  Solving for omega, Initial residual = 0.0338427, Final residual = 0.00262818, No Iterations 2
smoothSolver:  Solving for k, Initial residual = 0.00523571, Final residual = 0.000394368, No Iterations 6
ExecutionTime = 0.186397 s  ClockTime = 0 s

Time = 66s

smoothSolver:  Solving for Ux, Initial residual = 0.00412302, Final residual = 0.000381361, No Iterations 5
smoothSolver:  Solving for Uy, Initial residual = 0.0271875, Final residual = 0.00201402, No Iterations 6
Pressure gradient source: uncorrected Ubar = 1.00252, pressure gradient = 2.1991
GAMG:  Solving for p, Initial residual = 0.00468337, Final residual = 0.00041383, No Iterations 4
time step continuity errors : sum local = 0.00234195, global = 8.10983e-17, cumulative = 3.82081e-16
Pressure gradient source: uncorrected Ubar = 1.00033, pressure gradient = 6.2539
smoothSolver:  Solving for omega, Initial residual = 0.0233026, Final residual = 0.00191943, No Iterations 3
smoothSolver:  Solving for k, Initial residual = 0.00511357, Final residual = 0.000398047, No Iterations 6
ExecutionTime = 0.188928 s  ClockTime = 0 s

Time = 67s

smoothSolver:  Solving for Ux, Initial residual = 0.00408194, Final residual = 0.00037962, No Iterations 5
smoothSolver:  Solving for Uy, Initial residual = 0.0218681, Final residual = 0.0016883, No Iterations 6
Pressure gradient source: uncorrected Ubar = 1.00117, pressure gradient = 4.00683
GAMG:  Solving for p, Initial residual = 0.0035295, Final residual = 0.000350583, No Iterations 3
time step continuity errors : sum local = 0.00156496, global = -2.35814e-17, cumulative = 3.585e-16
Pressure gradient source: uncorrected Ubar = 1.00007, pressure gradient = 6.12343
smoothSolver:  Solving for omega, Initial residual = 0.0122514, Final residual = 0.000822959, No Iterations 5
smoothSolver:  Solving for k, Initial residual = 0.00513483, Final residual = 0.000398321, No Iterations 6
ExecutionTime = 0.191457 s  ClockTime = 0 s

Time = 68s

smoothSolver:  Solving for Ux, Initial residual = 0.00404821, Final residual = 0.000376469, No Iterations 5
smoothSolver:  Solving for Uy, Initial residual = 0.0216988, Final residual = 0.00167892, No Iterations 6
Pressure gradient source: uncorrected Ubar = 1.00021, pressure gradient = 5.71004
GAMG:  Solving for p, Initial residual = 0.00341924, Final residual = 0.000113051, No Iterations 3
time step continuity errors : sum local = 0.000414267, global = -7.36444e-17, cumulative = 2.84856e-16
Pressure gradient source: uncorrected Ubar = 0.999916, pressure gradient = 6.29179
smoothSolver:  Solving for omega, Initial residual = 0.010098, Final residual = 0.000739924, No Iterations 5
smoothSolver:  Solving for k, Initial residual = 0.00521378, Final residual = 0.000394773, No Iterations 6
ExecutionTime = 0.19396 s  ClockTime = 0 s

Time = 69s

smoothSolver:  Solving for Ux, Initial residual = 0.00401657, Final residual = 0.000373405, No Iterations 5
smoothSolver:  Solving for Uy, Initial residual = 0.0240224, Final residual = 0.00182815, No Iterations 6
Pressure gradient source: uncorrected Ubar = 1.00008, pressure gradient = 6.12222
GAMG:  Solving for p, Initial residual = 0.00573855, Final residual = 0.000210981, No Iterations 3
time step continuity errors : sum local = 0.000770904, global = 3.66459e-17, cumulative = 3.21502e-16
Pressure gradient source: uncorrected Ubar = 0.999914, pressure gradient = 6.46718
smoothSolver:  Solving for omega, Initial residual = 0.0132835, Final residual = 0.00101205, No Iterations 4
smoothSolver:  Solving for k, Initial residual = 0.00528579, Final residual = 0.000396002, No Iterations 6
ExecutionTime = 0.196459 s  ClockTime = 0 s

Time = 70s

smoothSolver:  Solving for Ux, Initial residual = 0.00398466, Final residual = 0.000371311, No Iterations 5
smoothSolver:  Solving for Uy, Initial residual = 0.0264104, Final residual = 0.00202726, No Iterations 6
Pressure gradient source: uncorrected Ubar = 1.00086, pressure gradient = 4.73562
GAMG:  Solving for p, Initial residual = 0.00555713, Final residual = 0.000227445, No Iterations 3
time step continuity errors : sum local = 0.000743525, global = -6.32634e-17, cumulative = 2.58238e-16
Pressure gradient source: uncorrected Ubar = 1.00006, pressure gradient = 6.34528
smoothSolver:  Solving for omega, Initial residual = 0.0161481, Final residual = 0.00161249, No Iterations 3
smoothSolver:  Solving for k, Initial residual = 0.00514948, Final residual = 0.000398361, No Iterations 6
ExecutionTime = 0.198954 s  ClockTime = 0 s

Time = 71s

smoothSolver:  Solving for Ux, Initial residual = 0.0039423, Final residual = 0.000369439, No Iterations 5
smoothSolver:  Solving for Uy, Initial residual = 0.0246817, Final residual = 0.00186815, No Iterations 6
Pressure gradient source: uncorrected Ubar = 1.00183, pressure gradient = 2.59123
GAMG:  Solving for p, Initial residual = 0.00451703, Final residual = 0.000364161, No Iterations 3
time step continuity errors : sum local = 0.0015729, global = 1.89464e-17, cumulative = 2.77185e-16
Pressure gradient source: uncorrected Ubar = 1.00021, pressure gradient = 5.91414
smoothSolver:  Solving for omega, Initial residual = 0.012442, Final residual = 0.00113719, No Iterations 4
smoothSolver:  Solving for k, Initial residual = 0.00504518, Final residual = 0.000396649, No Iterations 6
ExecutionTime = 0.201459 s  ClockTime = 0 s

Time = 72s

smoothSolver:  Solving for Ux, Initial residual = 0.00390586, Final residual = 0.000367273, No Iterations 5
smoothSolver:  Solving for Uy, Initial residual = 0.0225562, Final residual = 0.00174041, No Iterations 6
Pressure gradient source: uncorrected Ubar = 1.00091, pressure gradient = 3.96726
GAMG:  Solving for p, Initial residual = 0.00409445, Final residual = 0.000391606, No Iterations 2
time step continuity errors : sum local = 0.00127263, global = 3.96547e-17, cumulative = 3.16839e-16
Pressure gradient source: uncorrected Ubar = 1.00004, pressure gradient = 5.83764
smoothSolver:  Solving for omega, Initial residual = 0.00836977, Final residual = 0.000745841, No Iterations 5
smoothSolver:  Solving for k, Initial residual = 0.00509312, Final residual = 0.000398462, No Iterations 6
ExecutionTime = 0.20393 s  ClockTime = 0 s

Time = 73s

smoothSolver:  Solving for Ux, Initial residual = 0.00387454, Final residual = 0.000364155, No Iterations 5
smoothSolver:  Solving for Uy, Initial residual = 0.022321, Final residual = 0.00172115, No Iterations 6
Pressure gradient source: uncorrected Ubar = 0.999962, pressure gradient = 5.92276
GAMG:  Solving for p, Initial residual = 0.00445396, Final residual = 0.000404717, No Iterations 4
time step continuity errors : sum local = 0.00109634, global = -7.19029e-17, cumulative = 2.44936e-16
Pressure gradient source: uncorrected Ubar = 0.999885, pressure gradient = 6.09418
smoothSolver:  Solving for omega, Initial residual = 0.0128759, Final residual = 0.000959576, No Iterations 4
smoothSolver:  Solving for k, Initial residual = 0.00528305, Final residual = 0.000397969, No Iterations 6
ExecutionTime = 0.206568 s  ClockTime = 0 s

Time = 74s

smoothSolver:  Solving for Ux, Initial residual = 0.0038591, Final residual = 0.000362357, No Iterations 5
smoothSolver:  Solving for Uy, Initial residual = 0.0257863, Final residual = 0.00191605, No Iterations 6
Pressure gradient source: uncorrected Ubar = 0.999555, pressure gradient = 7.05602
GAMG:  Solving for p, Initial residual = 0.0163615, Final residual = 0.00135697, No Iterations 2
time step continuity errors : sum local = 0.00402249, global = -4.08202e-17, cumulative = 2.04116e-16
Pressure gradient source: uncorrected Ubar = 0.999868, pressure gradient = 6.38067
smoothSolver:  Solving for omega, Initial residual = 0.022921, Final residual = 0.00145637, No Iterations 3
smoothSolver:  Solving for k, Initial residual = 0.00518261, Final residual = 0.000396657, No Iterations 6
ExecutionTime = 0.20907 s  ClockTime = 0 s

Time = 75s

smoothSolver:  Solving for Ux, Initial residual = 0.00381821, Final residual = 0.000360056, No Iterations 5
smoothSolver:  Solving for Uy, Initial residual = 0.0282088, Final residual = 0.00204993, No Iterations 6
Pressure gradient source: uncorrected Ubar = 1.00168, pressure gradient = 2.73981
GAMG:  Solving for p, Initial residual = 0.0145235, Final residual = 0.00115873, No Iterations 2
time step continuity errors : sum local = 0.00271745, global = 1.1872e-17, cumulative = 2.15988e-16
Pressure gradient source: uncorrected Ubar = 1.00021, pressure gradient = 5.91995
smoothSolver:  Solving for omega, Initial residual = 0.0271348, Final residual = 0.00230589, No Iterations 2
smoothSolver:  Solving for k, Initial residual = 0.0051862, Final residual = 0.000400553, No Iterations 6
ExecutionTime = 0.211578 s  ClockTime = 0 s

Time = 76s

smoothSolver:  Solving for Ux, Initial residual = 0.00379977, Final residual = 0.000360031, No Iterations 5
smoothSolver:  Solving for Uy, Initial residual = 0.0247564, Final residual = 0.0018032, No Iterations 6
Pressure gradient source: uncorrected Ubar = 1.00159, pressure gradient = 2.48455
GAMG:  Solving for p, Initial residual = 0.00651051, Final residual = 0.000531134, No Iterations 3
time step continuity errors : sum local = 0.0026752, global = 6.9931e-18, cumulative = 2.22981e-16
Pressure gradient source: uncorrected Ubar = 1.0002, pressure gradient = 5.49522
smoothSolver:  Solving for omega, Initial residual = 0.0208003, Final residual = 0.00158451, No Iterations 3
smoothSolver:  Solving for k, Initial residual = 0.00506333, Final residual = 0.000403136, No Iterations 6
ExecutionTime = 0.214071 s  ClockTime = 0 s

Time = 77s

smoothSolver:  Solving for Ux, Initial residual = 0.00376814, Final residual = 0.00035824, No Iterations 5
smoothSolver:  Solving for Uy, Initial residual = 0.0203287, Final residual = 0.00150446, No Iterations 6
Pressure gradient source: uncorrected Ubar = 1.00161, pressure gradient = 1.82972
GAMG:  Solving for p, Initial residual = 0.00631076, Final residual = 0.000180391, No Iterations 3
time step continuity errors : sum local = 0.000638901, global = 2.39879e-17, cumulative = 2.46969e-16
Pressure gradient source: uncorrected Ubar = 1.00015, pressure gradient = 5.15889
smoothSolver:  Solving for omega, Initial residual = 0.0100276, Final residual = 0.000679194, No Iterations 5
smoothSolver:  Solving for k, Initial residual = 0.00512862, Final residual = 0.000396608, No Iterations 6
ExecutionTime = 0.21661 s  ClockTime = 0 s

Time = 78s

smoothSolver:  Solving for Ux, Initial residual = 0.00374385, Final residual = 0.000356281, No Iterations 5
smoothSolver:  Solving for Uy, Initial residual = 0.0184922, Final residual = 0.00131314, No Iterations 6
Pressure gradient source: uncorrected Ubar = 0.999192, pressure gradient = 7.04436
GAMG:  Solving for p, Initial residual = 0.00434633, Final residual = 0.00036519, No Iterations 3
time step continuity errors : sum local = 0.00118815, global = 1.86466e-17, cumulative = 2.65616e-16
Pressure gradient source: uncorrected Ubar = 0.999771, pressure gradient = 5.69299
smoothSolver:  Solving for omega, Initial residual = 0.0137948, Final residual = 0.000907942, No Iterations 4
smoothSolver:  Solving for k, Initial residual = 0.00524561, Final residual = 0.000397338, No Iterations 6
ExecutionTime = 0.219142 s  ClockTime = 0 s

Time = 79s

smoothSolver:  Solving for Ux, Initial residual = 0.00371519, Final residual = 0.000353796, No Iterations 5
smoothSolver:  Solving for Uy, Initial residual = 0.0200994, Final residual = 0.00150946, No Iterations 6
Pressure gradient source: uncorrected Ubar = 1.00068, pressure gradient = 4.1387
GAMG:  Solving for p, Initial residual = 0.00888291, Final residual = 0.000411214, No Iterations 3
time step continuity errors : sum local = 0.000902514, global = -4.91957e-18, cumulative = 2.60696e-16
Pressure gradient source: uncorrected Ubar = 1.00006, pressure gradient = 5.56518
smoothSolver:  Solving for omega, Initial residual = 0.017066, Final residual = 0.00144505, No Iterations 3
smoothSolver:  Solving for k, Initial residual = 0.00508079, Final residual = 0.000397466, No Iterations 6
ExecutionTime = 0.221641 s  ClockTime = 0 s

Time = 80s

smoothSolver:  Solving for Ux, Initial residual = 0.00367573, Final residual = 0.00035208, No Iterations 5
smoothSolver:  Solving for Uy, Initial residual = 0.0218025, Final residual = 0.00158358, No Iterations 6
Pressure gradient source: uncorrected Ubar = 1.00195, pressure gradient = 1.02064
GAMG:  Solving for p, Initial residual = 0.00702946, Final residual = 0.000246505, No Iterations 3
time step continuity errors : sum local = 0.000514197, global = -1.75099e-17, cumulative = 2.43186e-16
Pressure gradient source: uncorrected Ubar = 1.00024, pressure gradient = 5.00926
smoothSolver:  Solving for omega, Initial residual = 0.011038, Final residual = 0.00103274, No Iterations 4
smoothSolver:  Solving for k, Initial residual = 0.00500563, Final residual = 0.000395796, No Iterations 6
ExecutionTime = 0.224119 s  ClockTime = 0 s

Time = 81s

smoothSolver:  Solving for Ux, Initial residual = 0.00365026, Final residual = 0.000350652, No Iterations 5
smoothSolver:  Solving for Uy, Initial residual = 0.0188705, Final residual = 0.00139546, No Iterations 6
Pressure gradient source: uncorrected Ubar = 1.00057, pressure gradient = 3.61637
GAMG:  Solving for p, Initial residual = 0.00593386, Final residual = 0.000568849, No Iterations 4
time step continuity errors : sum local = 0.00120374, global = 6.44152e-17, cumulative = 3.07602e-16
Pressure gradient source: uncorrected Ubar = 0.999989, pressure gradient = 5.03602
smoothSolver:  Solving for omega, Initial residual = 0.00822208, Final residual = 0.000624827, No Iterations 5
smoothSolver:  Solving for k, Initial residual = 0.00511228, Final residual = 0.000397676, No Iterations 6
ExecutionTime = 0.226691 s  ClockTime = 0 s

Time = 82s

smoothSolver:  Solving for Ux, Initial residual = 0.00362998, Final residual = 0.000348217, No Iterations 5
smoothSolver:  Solving for Uy, Initial residual = 0.021861, Final residual = 0.00163937, No Iterations 6
Pressure gradient source: uncorrected Ubar = 0.999965, pressure gradient = 5.1234
GAMG:  Solving for p, Initial residual = 0.0067932, Final residual = 0.000604335, No Iterations 5
time step continuity errors : sum local = 0.00150386, global = -5.94956e-18, cumulative = 3.01652e-16
Pressure gradient source: uncorrected Ubar = 0.999909, pressure gradient = 5.26034
smoothSolver:  Solving for omega, Initial residual = 0.0102102, Final residual = 0.000863101, No Iterations 4
smoothSolver:  Solving for k, Initial residual = 0.00516925, Final residual = 0.00039643, No Iterations 6
ExecutionTime = 0.229291 s  ClockTime = 0 s

Time = 83s

smoothSolver:  Solving for Ux, Initial residual = 0.0036022, Final residual = 0.000346332, No Iterations 5
smoothSolver:  Solving for Uy, Initial residual = 0.027664, Final residual = 0.00216589, No Iterations 6
Pressure gradient source: uncorrected Ubar = 1.00055, pressure gradient = 3.91544
GAMG:  Solving for p, Initial residual = 0.00665302, Final residual = 0.000274596, No Iterations 3
time step continuity errors : sum local = 0.000590709, global = 4.7977e-18, cumulative = 3.0645e-16
Pressure gradient source: uncorrected Ubar = 1.00003, pressure gradient = 5.19407
smoothSolver:  Solving for omega, Initial residual = 0.0115124, Final residual = 0.000909042, No Iterations 4
smoothSolver:  Solving for k, Initial residual = 0.0050442, Final residual = 0.000395478, No Iterations 6
ExecutionTime = 0.231777 s  ClockTime = 0 s

Time = 84s

smoothSolver:  Solving for Ux, Initial residual = 0.00356595, Final residual = 0.000344382, No Iterations 5
smoothSolver:  Solving for Uy, Initial residual = 0.0283676, Final residual = 0.00216963, No Iterations 6
Pressure gradient source: uncorrected Ubar = 1.00163, pressure gradient = 1.12839
GAMG:  Solving for p, Initial residual = 0.00737516, Final residual = 0.000446151, No Iterations 3
time step continuity errors : sum local = 0.000963591, global = -3.9736e-17, cumulative = 2.66714e-16
Pressure gradient source: uncorrected Ubar = 1.0002, pressure gradient = 4.70814
smoothSolver:  Solving for omega, Initial residual = 0.00876177, Final residual = 0.000635804, No Iterations 5
smoothSolver:  Solving for k, Initial residual = 0.00499002, Final residual = 0.00039691, No Iterations 6
ExecutionTime = 0.234285 s  ClockTime = 0 s

Time = 85s

smoothSolver:  Solving for Ux, Initial residual = 0.00354275, Final residual = 0.000342953, No Iterations 5
smoothSolver:  Solving for Uy, Initial residual = 0.024778, Final residual = 0.00193904, No Iterations 6
Pressure gradient source: uncorrected Ubar = 1.00038, pressure gradient = 3.7264
GAMG:  Solving for p, Initial residual = 0.00739476, Final residual = 0.000729438, No Iterations 2
time step continuity errors : sum local = 0.00115043, global = 3.74524e-17, cumulative = 3.04166e-16
Pressure gradient source: uncorrected Ubar = 0.999967, pressure gradient = 4.79477
smoothSolver:  Solving for omega, Initial residual = 0.00833991, Final residual = 0.000574441, No Iterations 5
smoothSolver:  Solving for k, Initial residual = 0.00510425, Final residual = 0.000396519, No Iterations 6
ExecutionTime = 0.236757 s  ClockTime = 0 s

Time = 86s

smoothSolver:  Solving for Ux, Initial residual = 0.00352564, Final residual = 0.000340736, No Iterations 5
smoothSolver:  Solving for Uy, Initial residual = 0.0262539, Final residual = 0.00199376, No Iterations 6
Pressure gradient source: uncorrected Ubar = 0.999628, pressure gradient = 5.7659
GAMG:  Solving for p, Initial residual = 0.00968054, Final residual = 0.000913538, No Iterations 2
time step continuity errors : sum local = 0.00178497, global = 6.76e-17, cumulative = 3.71766e-16
Pressure gradient source: uncorrected Ubar = 0.999868, pressure gradient = 5.13855
smoothSolver:  Solving for omega, Initial residual = 0.0132911, Final residual = 0.00117416, No Iterations 3
smoothSolver:  Solving for k, Initial residual = 0.00518554, Final residual = 0.000395431, No Iterations 6
ExecutionTime = 0.239196 s  ClockTime = 0 s

Time = 87s

smoothSolver:  Solving for Ux, Initial residual = 0.00350418, Final residual = 0.000339212, No Iterations 5
smoothSolver:  Solving for Uy, Initial residual = 0.0321204, Final residual = 0.00254233, No Iterations 6
Pressure gradient source: uncorrected Ubar = 1.00075, pressure gradient = 3.22731
GAMG:  Solving for p, Initial residual = 0.00915058, Final residual = 0.00068851, No Iterations 3
time step continuity errors : sum local = 0.00095285, global = 1.97257e-17, cumulative = 3.91492e-16
Pressure gradient source: uncorrected Ubar = 1.00007, pressure gradient = 4.95411
smoothSolver:  Solving for omega, Initial residual = 0.0158843, Final residual = 0.00126294, No Iterations 3
smoothSolver:  Solving for k, Initial residual = 0.00506494, Final residual = 0.00039906, No Iterations 6
ExecutionTime = 0.241828 s  ClockTime = 0 s

Time = 88s

smoothSolver:  Solving for Ux, Initial residual = 0.00347583, Final residual = 0.000338186, No Iterations 5
smoothSolver:  Solving for Uy, Initial residual = 0.0274153, Final residual = 0.00208508, No Iterations 6
Pressure gradient source: uncorrected Ubar = 1.0021, pressure gradient = -0.489295
GAMG:  Solving for p, Initial residual = 0.0100281, Final residual = 0.000736099, No Iterations 4
time step continuity errors : sum local = 0.0015803, global = -1.78351e-17, cumulative = 3.73657e-16
Pressure gradient source: uncorrected Ubar = 1.00029, pressure gradient = 4.20595
smoothSolver:  Solving for omega, Initial residual = 0.0112102, Final residual = 0.000902055, No Iterations 4
smoothSolver:  Solving for k, Initial residual = 0.00499454, Final residual = 0.000399725, No Iterations 6
ExecutionTime = 0.244502 s  ClockTime = 0 s

Time = 89s

smoothSolver:  Solving for Ux, Initial residual = 0.00346138, Final residual = 0.000337983, No Iterations 5
smoothSolver:  Solving for Uy, Initial residual = 0.0187035, Final residual = 0.00139219, No Iterations 6
Pressure gradient source: uncorrected Ubar = 1.0004, pressure gradient = 3.13201
GAMG:  Solving for p, Initial residual = 0.00858613, Final residual = 0.000749585, No Iterations 2
time step continuity errors : sum local = 0.00125334, global = -1.72998e-17, cumulative = 3.56357e-16
Pressure gradient source: uncorrected Ubar = 0.99997, pressure gradient = 4.28661
[...]
smoothSolver:  Solving for k, Initial residual = 1.6161e-05, Final residual = 6.73277e-06, No Iterations 2
ExecutionTime = 10.9306 s  ClockTime = 11 s

Time = 4217s

smoothSolver:  Solving for Ux, Initial residual = 6.91491e-06, Final residual = 6.91491e-06, No Iterations 0
smoothSolver:  Solving for Uy, Initial residual = 0.000147866, Final residual = 1.19226e-05, No Iterations 5
Pressure gradient source: uncorrected Ubar = 1, pressure gradient = 0.00351112
GAMG:  Solving for p, Initial residual = 1.15138e-05, Final residual = 1.04841e-06, No Iterations 7
time step continuity errors : sum local = 3.00623e-11, global = -6.41261e-18, cumulative = 7.47762e-17
Pressure gradient source: uncorrected Ubar = 1, pressure gradient = 0.00351111
smoothSolver:  Solving for omega, Initial residual = 7.56013e-06, Final residual = 7.56013e-06, No Iterations 0
smoothSolver:  Solving for k, Initial residual = 1.6185e-05, Final residual = 6.74905e-06, No Iterations 2
ExecutionTime = 10.9332 s  ClockTime = 11 s

Time = 4218s

smoothSolver:  Solving for Ux, Initial residual = 6.89227e-06, Final residual = 6.89227e-06, No Iterations 0
smoothSolver:  Solving for Uy, Initial residual = 0.000158326, Final residual = 1.33979e-05, No Iterations 5
Pressure gradient source: uncorrected Ubar = 1, pressure gradient = 0.00351111
GAMG:  Solving for p, Initial residual = 1.01376e-05, Final residual = 8.44267e-07, No Iterations 9
time step continuity errors : sum local = 2.51393e-11, global = -9.32636e-18, cumulative = 6.54499e-17
Pressure gradient source: uncorrected Ubar = 1, pressure gradient = 0.00351109
smoothSolver:  Solving for omega, Initial residual = 7.56004e-06, Final residual = 7.56004e-06, No Iterations 0
smoothSolver:  Solving for k, Initial residual = 1.61979e-05, Final residual = 6.74729e-06, No Iterations 2
ExecutionTime = 10.9358 s  ClockTime = 11 s

Time = 4219s

smoothSolver:  Solving for Ux, Initial residual = 6.86965e-06, Final residual = 6.86965e-06, No Iterations 0
smoothSolver:  Solving for Uy, Initial residual = 0.000139959, Final residual = 1.16395e-05, No Iterations 5
Pressure gradient source: uncorrected Ubar = 1, pressure gradient = 0.00351109
GAMG:  Solving for p, Initial residual = 1.11516e-05, Final residual = 1.03381e-06, No Iterations 7
time step continuity errors : sum local = 2.95397e-11, global = 8.20741e-19, cumulative = 6.62706e-17
Pressure gradient source: uncorrected Ubar = 1, pressure gradient = 0.00351108
smoothSolver:  Solving for omega, Initial residual = 7.55995e-06, Final residual = 7.55995e-06, No Iterations 0
smoothSolver:  Solving for k, Initial residual = 1.62234e-05, Final residual = 6.769e-06, No Iterations 2
ExecutionTime = 10.9384 s  ClockTime = 11 s

Time = 4220s

smoothSolver:  Solving for Ux, Initial residual = 6.84704e-06, Final residual = 6.84704e-06, No Iterations 0
smoothSolver:  Solving for Uy, Initial residual = 0.000153731, Final residual = 1.35148e-05, No Iterations 5
Pressure gradient source: uncorrected Ubar = 1, pressure gradient = 0.00351108
GAMG:  Solving for p, Initial residual = 1.03447e-05, Final residual = 8.78356e-07, No Iterations 8
time step continuity errors : sum local = 2.56585e-11, global = -1.91132e-18, cumulative = 6.43593e-17
Pressure gradient source: uncorrected Ubar = 1, pressure gradient = 0.00351106
smoothSolver:  Solving for omega, Initial residual = 7.55986e-06, Final residual = 7.55986e-06, No Iterations 0
smoothSolver:  Solving for k, Initial residual = 1.62314e-05, Final residual = 6.75587e-06, No Iterations 2
ExecutionTime = 10.941 s  ClockTime = 11 s

Time = 4221s

smoothSolver:  Solving for Ux, Initial residual = 6.82443e-06, Final residual = 6.82443e-06, No Iterations 0
smoothSolver:  Solving for Uy, Initial residual = 0.000132214, Final residual = 1.11904e-05, No Iterations 5
Pressure gradient source: uncorrected Ubar = 1, pressure gradient = 0.00351106
GAMG:  Solving for p, Initial residual = 1.12388e-05, Final residual = 1.0656e-06, No Iterations 6
time step continuity errors : sum local = 2.9838e-11, global = 4.44568e-19, cumulative = 6.48039e-17
Pressure gradient source: uncorrected Ubar = 1, pressure gradient = 0.00351105
smoothSolver:  Solving for omega, Initial residual = 7.55978e-06, Final residual = 7.55978e-06, No Iterations 0
smoothSolver:  Solving for k, Initial residual = 1.62584e-05, Final residual = 6.78281e-06, No Iterations 2
ExecutionTime = 10.9435 s  ClockTime = 11 s

Time = 4222s

smoothSolver:  Solving for Ux, Initial residual = 6.80184e-06, Final residual = 6.80184e-06, No Iterations 0
smoothSolver:  Solving for Uy, Initial residual = 0.000144541, Final residual = 1.30185e-05, No Iterations 5
Pressure gradient source: uncorrected Ubar = 1, pressure gradient = 0.00351105
GAMG:  Solving for p, Initial residual = 9.91279e-06, Final residual = 9.33274e-07, No Iterations 8
time step continuity errors : sum local = 2.68166e-11, global = 5.5427e-18, cumulative = 7.03466e-17
Pressure gradient source: uncorrected Ubar = 1, pressure gradient = 0.00351103
smoothSolver:  Solving for omega, Initial residual = 7.5597e-06, Final residual = 7.5597e-06, No Iterations 0
smoothSolver:  Solving for k, Initial residual = 1.62658e-05, Final residual = 6.76943e-06, No Iterations 2
ExecutionTime = 10.9461 s  ClockTime = 11 s

Time = 4223s

smoothSolver:  Solving for Ux, Initial residual = 6.77926e-06, Final residual = 6.77926e-06, No Iterations 0
smoothSolver:  Solving for Uy, Initial residual = 0.000125915, Final residual = 1.08027e-05, No Iterations 5
Pressure gradient source: uncorrected Ubar = 1, pressure gradient = 0.00351103
GAMG:  Solving for p, Initial residual = 1.10367e-05, Final residual = 9.15815e-07, No Iterations 8
time step continuity errors : sum local = 2.58676e-11, global = -4.95972e-19, cumulative = 6.98506e-17
Pressure gradient source: uncorrected Ubar = 1, pressure gradient = 0.00351101
smoothSolver:  Solving for omega, Initial residual = 7.55962e-06, Final residual = 7.55962e-06, No Iterations 0
smoothSolver:  Solving for k, Initial residual = 1.62923e-05, Final residual = 6.7961e-06, No Iterations 2
ExecutionTime = 10.9487 s  ClockTime = 11 s

Time = 4224s

smoothSolver:  Solving for Ux, Initial residual = 6.75669e-06, Final residual = 6.75669e-06, No Iterations 0
smoothSolver:  Solving for Uy, Initial residual = 0.000136667, Final residual = 1.26143e-05, No Iterations 5
Pressure gradient source: uncorrected Ubar = 1, pressure gradient = 0.00351101
GAMG:  Solving for p, Initial residual = 9.75115e-06, Final residual = 9.65653e-07, No Iterations 8
time step continuity errors : sum local = 2.73162e-11, global = 4.15312e-18, cumulative = 7.40037e-17
Pressure gradient source: uncorrected Ubar = 1, pressure gradient = 0.003511
smoothSolver:  Solving for omega, Initial residual = 7.55955e-06, Final residual = 7.55955e-06, No Iterations 0
smoothSolver:  Solving for k, Initial residual = 1.6299e-05, Final residual = 6.78249e-06, No Iterations 2
ExecutionTime = 10.9513 s  ClockTime = 11 s

Time = 4225s

smoothSolver:  Solving for Ux, Initial residual = 6.73412e-06, Final residual = 6.73412e-06, No Iterations 0
smoothSolver:  Solving for Uy, Initial residual = 0.000120417, Final residual = 1.05263e-05, No Iterations 5
Pressure gradient source: uncorrected Ubar = 1, pressure gradient = 0.003511
GAMG:  Solving for p, Initial residual = 1.07777e-05, Final residual = 9.58315e-07, No Iterations 8
time step continuity errors : sum local = 2.67677e-11, global = 1.9611e-18, cumulative = 7.59648e-17
Pressure gradient source: uncorrected Ubar = 1, pressure gradient = 0.00351098
smoothSolver:  Solving for omega, Initial residual = 7.55948e-06, Final residual = 7.55948e-06, No Iterations 0
smoothSolver:  Solving for k, Initial residual = 1.63249e-05, Final residual = 6.80889e-06, No Iterations 2
ExecutionTime = 10.954 s  ClockTime = 11 s

Time = 4226s

smoothSolver:  Solving for Ux, Initial residual = 6.71157e-06, Final residual = 6.71157e-06, No Iterations 0
smoothSolver:  Solving for Uy, Initial residual = 0.000129949, Final residual = 1.23487e-05, No Iterations 5
Pressure gradient source: uncorrected Ubar = 1, pressure gradient = 0.00351098
GAMG:  Solving for p, Initial residual = 9.67574e-06, Final residual = 8.24713e-07, No Iterations 10
time step continuity errors : sum local = 2.36291e-11, global = -2.0128e-19, cumulative = 7.57635e-17
Pressure gradient source: uncorrected Ubar = 1, pressure gradient = 0.00351097
smoothSolver:  Solving for omega, Initial residual = 7.55941e-06, Final residual = 7.55941e-06, No Iterations 0
smoothSolver:  Solving for k, Initial residual = 1.63311e-05, Final residual = 6.79509e-06, No Iterations 2
ExecutionTime = 10.9567 s  ClockTime = 11 s

Time = 4227s

smoothSolver:  Solving for Ux, Initial residual = 6.68903e-06, Final residual = 6.68903e-06, No Iterations 0
smoothSolver:  Solving for Uy, Initial residual = 0.000114803, Final residual = 1.02007e-05, No Iterations 5
Pressure gradient source: uncorrected Ubar = 1, pressure gradient = 0.00351097
GAMG:  Solving for p, Initial residual = 1.05232e-05, Final residual = 9.51808e-07, No Iterations 8
time step continuity errors : sum local = 2.6237e-11, global = 4.12997e-18, cumulative = 7.98935e-17
Pressure gradient source: uncorrected Ubar = 1, pressure gradient = 0.00351095
smoothSolver:  Solving for omega, Initial residual = 7.55935e-06, Final residual = 7.55935e-06, No Iterations 0
smoothSolver:  Solving for k, Initial residual = 1.63564e-05, Final residual = 6.82122e-06, No Iterations 2
ExecutionTime = 10.9592 s  ClockTime = 11 s

Time = 4228s

smoothSolver:  Solving for Ux, Initial residual = 6.6665e-06, Final residual = 6.6665e-06, No Iterations 0
smoothSolver:  Solving for Uy, Initial residual = 0.000123393, Final residual = 1.20552e-05, No Iterations 5
Pressure gradient source: uncorrected Ubar = 1, pressure gradient = 0.00351095
GAMG:  Solving for p, Initial residual = 9.57048e-06, Final residual = 9.90008e-07, No Iterations 8
time step continuity errors : sum local = 2.73853e-11, global = 4.51881e-18, cumulative = 8.44123e-17
Pressure gradient source: uncorrected Ubar = 1, pressure gradient = 0.00351093
smoothSolver:  Solving for omega, Initial residual = 7.55929e-06, Final residual = 7.55929e-06, No Iterations 0
smoothSolver:  Solving for k, Initial residual = 1.63621e-05, Final residual = 6.80723e-06, No Iterations 2
ExecutionTime = 10.9618 s  ClockTime = 11 s

Time = 4229s

smoothSolver:  Solving for Ux, Initial residual = 6.64398e-06, Final residual = 6.64398e-06, No Iterations 0
smoothSolver:  Solving for Uy, Initial residual = 0.00011081, Final residual = 1.0048e-05, No Iterations 5
Pressure gradient source: uncorrected Ubar = 1, pressure gradient = 0.00351093
GAMG:  Solving for p, Initial residual = 1.03704e-05, Final residual = 9.81748e-07, No Iterations 8
time step continuity errors : sum local = 2.68802e-11, global = -6.71674e-18, cumulative = 7.76956e-17
Pressure gradient source: uncorrected Ubar = 1, pressure gradient = 0.00351092
smoothSolver:  Solving for omega, Initial residual = 7.55923e-06, Final residual = 7.55923e-06, No Iterations 0
smoothSolver:  Solving for k, Initial residual = 1.63868e-05, Final residual = 6.83312e-06, No Iterations 2
ExecutionTime = 10.9645 s  ClockTime = 11 s

Time = 4230s

smoothSolver:  Solving for Ux, Initial residual = 6.62147e-06, Final residual = 6.62147e-06, No Iterations 0
smoothSolver:  Solving for Uy, Initial residual = 0.000118342, Final residual = 1.1782e-05, No Iterations 5
Pressure gradient source: uncorrected Ubar = 1, pressure gradient = 0.00351092
GAMG:  Solving for p, Initial residual = 9.50226e-06, Final residual = 9.9701e-07, No Iterations 8
time step continuity errors : sum local = 2.73728e-11, global = -1.63255e-19, cumulative = 7.75323e-17
Pressure gradient source: uncorrected Ubar = 1, pressure gradient = 0.0035109
smoothSolver:  Solving for omega, Initial residual = 7.55917e-06, Final residual = 7.55917e-06, No Iterations 0
smoothSolver:  Solving for k, Initial residual = 1.63919e-05, Final residual = 6.81894e-06, No Iterations 2
ExecutionTime = 10.9671 s  ClockTime = 11 s

Time = 4231s

smoothSolver:  Solving for Ux, Initial residual = 6.59896e-06, Final residual = 6.59896e-06, No Iterations 0
smoothSolver:  Solving for Uy, Initial residual = 0.000107142, Final residual = 9.79273e-06, No Iterations 5
Pressure gradient source: uncorrected Ubar = 1, pressure gradient = 0.0035109
GAMG:  Solving for p, Initial residual = 1.02033e-05, Final residual = 9.76577e-07, No Iterations 8
time step continuity errors : sum local = 2.64708e-11, global = 1.89971e-18, cumulative = 7.9432e-17
Pressure gradient source: uncorrected Ubar = 1, pressure gradient = 0.00351088
smoothSolver:  Solving for omega, Initial residual = 7.55912e-06, Final residual = 7.55912e-06, No Iterations 0
smoothSolver:  Solving for k, Initial residual = 1.64161e-05, Final residual = 6.84458e-06, No Iterations 2
ExecutionTime = 10.9697 s  ClockTime = 11 s

Time = 4232s

smoothSolver:  Solving for Ux, Initial residual = 6.57647e-06, Final residual = 6.57647e-06, No Iterations 0
smoothSolver:  Solving for Uy, Initial residual = 0.000115173, Final residual = 1.14541e-05, No Iterations 5
Pressure gradient source: uncorrected Ubar = 1, pressure gradient = 0.00351088
GAMG:  Solving for p, Initial residual = 9.43619e-06, Final residual = 9.6728e-07, No Iterations 8
time step continuity errors : sum local = 2.62319e-11, global = 6.4728e-18, cumulative = 8.59048e-17
Pressure gradient source: uncorrected Ubar = 1, pressure gradient = 0.00351087
smoothSolver:  Solving for omega, Initial residual = 7.55907e-06, Final residual = 7.55907e-06, No Iterations 0
smoothSolver:  Solving for k, Initial residual = 1.64206e-05, Final residual = 6.83022e-06, No Iterations 2
ExecutionTime = 10.9723 s  ClockTime = 11 s

Time = 4233s

smoothSolver:  Solving for Ux, Initial residual = 6.55399e-06, Final residual = 6.55399e-06, No Iterations 0
smoothSolver:  Solving for Uy, Initial residual = 0.000104856, Final residual = 9.50678e-06, No Iterations 5
Pressure gradient source: uncorrected Ubar = 1, pressure gradient = 0.00351087
GAMG:  Solving for p, Initial residual = 1.00561e-05, Final residual = 9.3539e-07, No Iterations 8
time step continuity errors : sum local = 2.49778e-11, global = -1.08788e-18, cumulative = 8.4817e-17
Pressure gradient source: uncorrected Ubar = 1, pressure gradient = 0.00351085
smoothSolver:  Solving for omega, Initial residual = 7.55902e-06, Final residual = 7.55902e-06, No Iterations 0
smoothSolver:  Solving for k, Initial residual = 1.64442e-05, Final residual = 6.85562e-06, No Iterations 2
ExecutionTime = 10.9749 s  ClockTime = 11 s

Time = 4234s

smoothSolver:  Solving for Ux, Initial residual = 6.53152e-06, Final residual = 6.53152e-06, No Iterations 0
smoothSolver:  Solving for Uy, Initial residual = 0.000112707, Final residual = 1.11198e-05, No Iterations 5
Pressure gradient source: uncorrected Ubar = 1, pressure gradient = 0.00351085
GAMG:  Solving for p, Initial residual = 9.3701e-06, Final residual = 9.10763e-07, No Iterations 8
time step continuity errors : sum local = 2.43156e-11, global = -1.3836e-18, cumulative = 8.34333e-17
Pressure gradient source: uncorrected Ubar = 1, pressure gradient = 0.00351083
smoothSolver:  Solving for omega, Initial residual = 7.55897e-06, Final residual = 7.55897e-06, No Iterations 0
smoothSolver:  Solving for k, Initial residual = 1.64483e-05, Final residual = 6.84108e-06, No Iterations 2
ExecutionTime = 10.9775 s  ClockTime = 11 s

Time = 4235s

smoothSolver:  Solving for Ux, Initial residual = 6.50905e-06, Final residual = 6.50905e-06, No Iterations 0
smoothSolver:  Solving for Uy, Initial residual = 0.000102882, Final residual = 9.22684e-06, No Iterations 5
Pressure gradient source: uncorrected Ubar = 1, pressure gradient = 0.00351083
GAMG:  Solving for p, Initial residual = 9.92637e-06, Final residual = 8.72843e-07, No Iterations 8
time step continuity errors : sum local = 2.28899e-11, global = -9.71655e-19, cumulative = 8.24617e-17
Pressure gradient source: uncorrected Ubar = 1, pressure gradient = 0.00351082
smoothSolver:  Solving for omega, Initial residual = 7.55893e-06, Final residual = 7.55893e-06, No Iterations 0
smoothSolver:  Solving for k, Initial residual = 1.64685e-05, Final residual = 6.86433e-06, No Iterations 2
ExecutionTime = 10.9801 s  ClockTime = 11 s

Time = 4236s

smoothSolver:  Solving for Ux, Initial residual = 6.4866e-06, Final residual = 6.4866e-06, No Iterations 0
smoothSolver:  Solving for Uy, Initial residual = 0.000109594, Final residual = 1.07412e-05, No Iterations 5
Pressure gradient source: uncorrected Ubar = 1, pressure gradient = 0.00351082
GAMG:  Solving for p, Initial residual = 9.29315e-06, Final residual = 9.9627e-07, No Iterations 6
time step continuity errors : sum local = 2.51985e-11, global = -3.86505e-18, cumulative = 7.85966e-17
Pressure gradient source: uncorrected Ubar = 1, pressure gradient = 0.0035108
smoothSolver:  Solving for omega, Initial residual = 7.55889e-06, Final residual = 7.55889e-06, No Iterations 0
smoothSolver:  Solving for k, Initial residual = 1.64749e-05, Final residual = 6.85157e-06, No Iterations 2
ExecutionTime = 10.9826 s  ClockTime = 11 s

Time = 4237s

smoothSolver:  Solving for Ux, Initial residual = 6.46416e-06, Final residual = 6.46416e-06, No Iterations 0
smoothSolver:  Solving for Uy, Initial residual = 0.000100979, Final residual = 8.94702e-06, No Iterations 5
Pressure gradient source: uncorrected Ubar = 1, pressure gradient = 0.0035108
GAMG:  Solving for p, Initial residual = 9.81204e-06, Final residual = 8.21968e-07, No Iterations 8
time step continuity errors : sum local = 2.10213e-11, global = 7.90628e-18, cumulative = 8.65029e-17
Pressure gradient source: uncorrected Ubar = 1, pressure gradient = 0.00351078
smoothSolver:  Solving for omega, Initial residual = 7.55885e-06, Final residual = 7.55885e-06, No Iterations 0
smoothSolver:  Solving for k, Initial residual = 1.64976e-05, Final residual = 6.87662e-06, No Iterations 2
ExecutionTime = 10.9852 s  ClockTime = 11 s

Time = 4238s

smoothSolver:  Solving for Ux, Initial residual = 6.44172e-06, Final residual = 6.44172e-06, No Iterations 0
smoothSolver:  Solving for Uy, Initial residual = 0.000107927, Final residual = 1.04698e-05, No Iterations 5
Pressure gradient source: uncorrected Ubar = 1, pressure gradient = 0.00351078
GAMG:  Solving for p, Initial residual = 9.21499e-06, Final residual = 9.35804e-07, No Iterations 6
time step continuity errors : sum local = 2.31863e-11, global = -1.16711e-19, cumulative = 8.63862e-17
Pressure gradient source: uncorrected Ubar = 1, pressure gradient = 0.00351076
smoothSolver:  Solving for omega, Initial residual = 7.55881e-06, Final residual = 7.55881e-06, No Iterations 0
smoothSolver:  Solving for k, Initial residual = 1.65005e-05, Final residual = 6.86166e-06, No Iterations 2
ExecutionTime = 10.9877 s  ClockTime = 11 s

Time = 4239s

smoothSolver:  Solving for Ux, Initial residual = 6.4193e-06, Final residual = 6.4193e-06, No Iterations 0
smoothSolver:  Solving for Uy, Initial residual = 9.94625e-05, Final residual = 8.67896e-06, No Iterations 5
Pressure gradient source: uncorrected Ubar = 1, pressure gradient = 0.00351076
GAMG:  Solving for p, Initial residual = 9.74697e-06, Final residual = 9.47294e-07, No Iterations 7
time step continuity errors : sum local = 2.28811e-11, global = -4.11437e-19, cumulative = 8.59748e-17
Pressure gradient source: uncorrected Ubar = 1, pressure gradient = 0.00351075
smoothSolver:  Solving for omega, Initial residual = 7.55878e-06, Final residual = 7.55878e-06, No Iterations 0
smoothSolver:  Solving for k, Initial residual = 1.65198e-05, Final residual = 6.88455e-06, No Iterations 2
ExecutionTime = 10.9903 s  ClockTime = 11 s


SIMPLE solution converged in 4239 iterations

End

