/*---------------------------------------------------------------------------*\
  =========                 |
  \\      /  F ield         | OpenFOAM: The Open Source CFD Toolbox
   \\    /   O peration     | Website:  https://openfoam.org
    \\  /    A nd           | Version:  10
     \\/     M anipulation  |
\*---------------------------------------------------------------------------*/
Build  : 10-e450dce21ea5
Exec   : blockMesh
Date   : Feb 20 2023
Time   : 14:19:15
Host   : "w530-R9YK46P"
PID    : 19141
I/O    : uncollated
Case   : /home/jdmezazeron/gitDanielMezaZ/turbulenceVisualized/Data/SimulationFiles/K42_Re11593
nProcs : 1
sigFpe : Enabling floating point exception trapping (FOAM_SIGFPE).
fileModificationChecking : Monitoring run-time modified files using timeStampMaster (fileModificationSkew 10)
allowSystemOperations : Allowing user-supplied system call operations

// * * * * * * * * * * * * * * * * * * * * * * * * * * * * * * * * * * * * * //
Create time

Deleting polyMesh directory
    "/home/jdmezazeron/gitDanielMezaZ/turbulenceVisualized/Data/SimulationFiles/K42_Re11593/constant/polyMesh"
Reading "blockMeshDict"

Creating block mesh from
    "system/blockMeshDict"
Creating block edges
No non-planar block faces defined
Creating topology blocks
Creating topology patches

Creating block mesh topology

Check topology

	Basic statistics
		Number of internal faces : 0
		Number of boundary faces : 6
		Number of defined boundary faces : 6
		Number of undefined boundary faces : 0
	Checking patch -> block consistency

Creating block offsets
Creating merge list .

Creating polyMesh from blockMesh
Creating patches
Creating cells
Creating points with scale 1
    Block 0 cell size :
        i : 0.5
        j : 0.00461374 .. 0.018455
        k : 2

Detected cyclic patches; ordering boundary faces

Writing polyMesh
----------------
Mesh Information
----------------
  boundingBox: (-1 0 -1) (1 1 1)
  nPoints: 1010
  nCells: 400
  nFaces: 1704
  nInternalFaces: 696
----------------
Patches
----------------
  patch 0 (start: 696 size: 100) name: inlet
  patch 1 (start: 796 size: 100) name: outlet
  patch 2 (start: 896 size: 4) name: fixedWalls-bottom
  patch 3 (start: 900 size: 4) name: fixedWalls-top
  patch 4 (start: 904 size: 800) name: frontAndBack

End

/*---------------------------------------------------------------------------*\
  =========                 |
  \\      /  F ield         | OpenFOAM: The Open Source CFD Toolbox
   \\    /   O peration     | Website:  https://openfoam.org
    \\  /    A nd           | Version:  10
     \\/     M anipulation  |
\*---------------------------------------------------------------------------*/
Build  : 10-e450dce21ea5
Exec   : simpleFoam
Date   : Feb 20 2023
Time   : 14:19:15
Host   : "w530-R9YK46P"
PID    : 19142
I/O    : uncollated
Case   : /home/jdmezazeron/gitDanielMezaZ/turbulenceVisualized/Data/SimulationFiles/K42_Re11593
nProcs : 1
sigFpe : Enabling floating point exception trapping (FOAM_SIGFPE).
fileModificationChecking : Monitoring run-time modified files using timeStampMaster (fileModificationSkew 10)
allowSystemOperations : Allowing user-supplied system call operations

// * * * * * * * * * * * * * * * * * * * * * * * * * * * * * * * * * * * * * //
Create time

Create mesh for time = 0


SIMPLE: Convergence criteria found
        U: tolerance 0.0001
        p: tolerance 0.01
        omega: tolerance 0.0001

Reading field p

Reading field U

Reading/calculating face flux field phi

Selecting viscosity model Newtonian
Selecting turbulence model type RAS
Selecting RAS turbulence model kOmegaSST
Selecting patchDistMethod meshWave
RAS
{
    RASModel        kOmegaSST;
    turbulence      on;
    printCoeffs     on;
    alphaK1         0.85;
    alphaK2         1;
    alphaOmega1     0.5;
    alphaOmega2     0.856;
    gamma1          0.555556;
    gamma2          0.44;
    beta1           0.075;
    beta2           0.0828;
    betaStar        0.09;
    a1              0.31;
    b1              1;
    c1              10;
    F3              false;
}

No MRF models present

--> FOAM Warning : Creating fvModels from "system/fvOptions" rather than constant/fvModels
No fvModels present
--> FOAM Warning : Creating fvConstraints from "system/fvOptions"

Selecting finite volume constraint type meanVelocityForce
    Name: momentumSource
    - selecting all cells
    - selected 400 cell(s) with volume 4
    Initial pressure gradient = 0


Starting time loop

turbulenceFields stressComponents: storing fields:
    R

Time = 1s

smoothSolver:  Solving for Ux, Initial residual = 0, Final residual = 0, No Iterations 0
smoothSolver:  Solving for Uy, Initial residual = 0, Final residual = 0, No Iterations 0
Pressure gradient source: uncorrected Ubar = 0, pressure gradient = 1005.52
GAMG:  Solving for p, Initial residual = 0.999996, Final residual = 0.0832632, No Iterations 2
time step continuity errors : sum local = 8.89001e-17, global = -3.58319e-18, cumulative = -3.58319e-18
Pressure gradient source: uncorrected Ubar = 0.884654, pressure gradient = 115.983
smoothSolver:  Solving for omega, Initial residual = 0.269244, Final residual = 0.0162672, No Iterations 3
smoothSolver:  Solving for k, Initial residual = 1, Final residual = 0.0848593, No Iterations 5
ExecutionTime = 0.014168 s  ClockTime = 0 s

Time = 2s

smoothSolver:  Solving for Ux, Initial residual = 0.994394, Final residual = 0.0991239, No Iterations 6
smoothSolver:  Solving for Uy, Initial residual = 1, Final residual = 0.0834107, No Iterations 5
Pressure gradient source: uncorrected Ubar = 77.7392, pressure gradient = -859.174
GAMG:  Solving for p, Initial residual = 1, Final residual = 0.0922146, No Iterations 15
time step continuity errors : sum local = 0.0667669, global = -4.5916e-17, cumulative = -4.94992e-17
Pressure gradient source: uncorrected Ubar = 11.0021, pressure gradient = -11.1177
smoothSolver:  Solving for omega, Initial residual = 0.219714, Final residual = 0.0184289, No Iterations 1
smoothSolver:  Solving for k, Initial residual = 0.854871, Final residual = 0.0282097, No Iterations 1
ExecutionTime = 0.01724 s  ClockTime = 0 s

Time = 3s

smoothSolver:  Solving for Ux, Initial residual = 0.281126, Final residual = 0.0193594, No Iterations 6
smoothSolver:  Solving for Uy, Initial residual = 0.66284, Final residual = 0.0178196, No Iterations 2
Pressure gradient source: uncorrected Ubar = -1.41114, pressure gradient = 83.4524
GAMG:  Solving for p, Initial residual = 0.182769, Final residual = 0.0171761, No Iterations 8
time step continuity errors : sum local = 0.0312228, global = 7.41594e-17, cumulative = 2.46603e-17
Pressure gradient source: uncorrected Ubar = 0.703724, pressure gradient = 0.502933
smoothSolver:  Solving for omega, Initial residual = 0.479303, Final residual = 0.00917024, No Iterations 1
smoothSolver:  Solving for k, Initial residual = 0.191233, Final residual = 0.00582292, No Iterations 2
ExecutionTime = 0.01989 s  ClockTime = 0 s

Time = 4s

smoothSolver:  Solving for Ux, Initial residual = 0.0636273, Final residual = 0.00465283, No Iterations 4
smoothSolver:  Solving for Uy, Initial residual = 0.39314, Final residual = 0.0327377, No Iterations 2
Pressure gradient source: uncorrected Ubar = 0.978552, pressure gradient = 0.972765
GAMG:  Solving for p, Initial residual = 0.091571, Final residual = 0.00724022, No Iterations 9
time step continuity errors : sum local = 0.026843, global = 8.35056e-17, cumulative = 1.08166e-16
Pressure gradient source: uncorrected Ubar = 0.996435, pressure gradient = 0.581021
smoothSolver:  Solving for omega, Initial residual = 0.0685088, Final residual = 0.0026037, No Iterations 2
bounding omega, min: -0.399897 max: 2593.18 average: 96.5882
smoothSolver:  Solving for k, Initial residual = 0.598849, Final residual = 0.0349824, No Iterations 2
ExecutionTime = 0.022731 s  ClockTime = 0 s

Time = 5s

smoothSolver:  Solving for Ux, Initial residual = 0.0626626, Final residual = 0.00607447, No Iterations 4
smoothSolver:  Solving for Uy, Initial residual = 0.619966, Final residual = 0.0414871, No Iterations 2
Pressure gradient source: uncorrected Ubar = 0.852372, pressure gradient = 3.89801
GAMG:  Solving for p, Initial residual = 0.0903585, Final residual = 0.0069216, No Iterations 10
time step continuity errors : sum local = 0.0310514, global = -9.13779e-18, cumulative = 9.90281e-17
Pressure gradient source: uncorrected Ubar = 0.981101, pressure gradient = 1.00566
smoothSolver:  Solving for omega, Initial residual = 0.161085, Final residual = 0.00366939, No Iterations 2
smoothSolver:  Solving for k, Initial residual = 0.786743, Final residual = 0.0769961, No Iterations 1
ExecutionTime = 0.025524 s  ClockTime = 0 s

Time = 6s

smoothSolver:  Solving for Ux, Initial residual = 0.0809548, Final residual = 0.00507116, No Iterations 5
smoothSolver:  Solving for Uy, Initial residual = 0.655397, Final residual = 0.0539668, No Iterations 2
Pressure gradient source: uncorrected Ubar = 0.944632, pressure gradient = 2.39878
GAMG:  Solving for p, Initial residual = 0.157897, Final residual = 0.0142281, No Iterations 12
time step continuity errors : sum local = 0.0439618, global = -7.80626e-18, cumulative = 9.12218e-17
Pressure gradient source: uncorrected Ubar = 0.991951, pressure gradient = 1.20817
smoothSolver:  Solving for omega, Initial residual = 0.286361, Final residual = 0.00822715, No Iterations 2
smoothSolver:  Solving for k, Initial residual = 0.432924, Final residual = 0.027936, No Iterations 1
ExecutionTime = 0.028338 s  ClockTime = 0 s

Time = 7s

smoothSolver:  Solving for Ux, Initial residual = 0.0948123, Final residual = 0.00721789, No Iterations 4
smoothSolver:  Solving for Uy, Initial residual = 0.536689, Final residual = 0.0421846, No Iterations 2
Pressure gradient source: uncorrected Ubar = 1.01814, pressure gradient = 0.618743
GAMG:  Solving for p, Initial residual = 0.198371, Final residual = 0.0181208, No Iterations 10
time step continuity errors : sum local = 0.0731614, global = -1.39232e-16, cumulative = -4.80101e-17
Pressure gradient source: uncorrected Ubar = 1.00226, pressure gradient = 1.1347
smoothSolver:  Solving for omega, Initial residual = 0.42373, Final residual = 0.00695479, No Iterations 2
bounding omega, min: -0.745309 max: 3687.21 average: 153.931
smoothSolver:  Solving for k, Initial residual = 0.397411, Final residual = 0.0351738, No Iterations 1
ExecutionTime = 0.031169 s  ClockTime = 0 s

Time = 8s

smoothSolver:  Solving for Ux, Initial residual = 0.104799, Final residual = 0.00765505, No Iterations 4
smoothSolver:  Solving for Uy, Initial residual = 0.563794, Final residual = 0.0483878, No Iterations 2
Pressure gradient source: uncorrected Ubar = 0.900636, pressure gradient = 4.8744
GAMG:  Solving for p, Initial residual = 0.183002, Final residual = 0.0181585, No Iterations 10
time step continuity errors : sum local = 0.0917777, global = 4.55094e-17, cumulative = -2.50069e-18
Pressure gradient source: uncorrected Ubar = 0.990129, pressure gradient = 1.50619
smoothSolver:  Solving for omega, Initial residual = 0.352875, Final residual = 0.00217567, No Iterations 2
bounding omega, min: -2.25946 max: 2593.18 average: 157.948
smoothSolver:  Solving for k, Initial residual = 0.300327, Final residual = 0.0021198, No Iterations 2
bounding k, min: -3.67214e-06 max: 11.9943 average: 0.384331
ExecutionTime = 0.034013 s  ClockTime = 0 s

Time = 9s

smoothSolver:  Solving for Ux, Initial residual = 0.127462, Final residual = 0.00818545, No Iterations 4
smoothSolver:  Solving for Uy, Initial residual = 0.596099, Final residual = 0.0459237, No Iterations 2
Pressure gradient source: uncorrected Ubar = 0.946758, pressure gradient = 3.6911
GAMG:  Solving for p, Initial residual = 0.27064, Final residual = 0.0251631, No Iterations 10
time step continuity errors : sum local = 0.0910458, global = -5.07271e-17, cumulative = -5.32278e-17
Pressure gradient source: uncorrected Ubar = 0.98938, pressure gradient = 1.94202
smoothSolver:  Solving for omega, Initial residual = 0.275193, Final residual = 0.00498308, No Iterations 2
smoothSolver:  Solving for k, Initial residual = 0.273971, Final residual = 0.00552089, No Iterations 2
ExecutionTime = 0.036732 s  ClockTime = 0 s

Time = 10s

smoothSolver:  Solving for Ux, Initial residual = 0.110986, Final residual = 0.00670251, No Iterations 4
smoothSolver:  Solving for Uy, Initial residual = 0.522923, Final residual = 0.0518181, No Iterations 2
Pressure gradient source: uncorrected Ubar = 0.869239, pressure gradient = 7.91368
GAMG:  Solving for p, Initial residual = 0.333211, Final residual = 0.0311256, No Iterations 8
time step continuity errors : sum local = 0.115975, global = 5.482e-17, cumulative = 1.59219e-18
Pressure gradient source: uncorrected Ubar = 0.976364, pressure gradient = 3.02142
smoothSolver:  Solving for omega, Initial residual = 0.234133, Final residual = 0.00455474, No Iterations 2
smoothSolver:  Solving for k, Initial residual = 0.223361, Final residual = 0.0101956, No Iterations 2
ExecutionTime = 0.039395 s  ClockTime = 0 s

Time = 11s

smoothSolver:  Solving for Ux, Initial residual = 0.105206, Final residual = 0.00889952, No Iterations 3
smoothSolver:  Solving for Uy, Initial residual = 0.389916, Final residual = 0.0142978, No Iterations 3
Pressure gradient source: uncorrected Ubar = 0.917023, pressure gradient = 7.58002
GAMG:  Solving for p, Initial residual = 0.339995, Final residual = 0.0295683, No Iterations 10
time step continuity errors : sum local = 0.116985, global = -1.02349e-16, cumulative = -1.00756e-16
Pressure gradient source: uncorrected Ubar = 0.99151, pressure gradient = 3.48786
smoothSolver:  Solving for omega, Initial residual = 0.234852, Final residual = 0.00803883, No Iterations 2
smoothSolver:  Solving for k, Initial residual = 0.186247, Final residual = 0.0171237, No Iterations 2
ExecutionTime = 0.042122 s  ClockTime = 0 s

Time = 12s

smoothSolver:  Solving for Ux, Initial residual = 0.0631715, Final residual = 0.00527412, No Iterations 3
smoothSolver:  Solving for Uy, Initial residual = 0.403511, Final residual = 0.0175206, No Iterations 3
Pressure gradient source: uncorrected Ubar = 0.849278, pressure gradient = 13.7089
GAMG:  Solving for p, Initial residual = 0.266103, Final residual = 0.0189204, No Iterations 8
time step continuity errors : sum local = 0.125835, global = 1.9082e-17, cumulative = -8.16745e-17
Pressure gradient source: uncorrected Ubar = 0.982304, pressure gradient = 4.68788
smoothSolver:  Solving for omega, Initial residual = 0.171042, Final residual = 0.00597724, No Iterations 2
smoothSolver:  Solving for k, Initial residual = 0.208664, Final residual = 0.00979731, No Iterations 3
ExecutionTime = 0.044751 s  ClockTime = 0 s

Time = 13s

smoothSolver:  Solving for Ux, Initial residual = 0.0394063, Final residual = 0.00389231, No Iterations 3
smoothSolver:  Solving for Uy, Initial residual = 0.372515, Final residual = 0.0162257, No Iterations 3
Pressure gradient source: uncorrected Ubar = 0.940009, pressure gradient = 9.3777
GAMG:  Solving for p, Initial residual = 0.23645, Final residual = 0.0214526, No Iterations 10
time step continuity errors : sum local = 0.152918, global = 3.11166e-17, cumulative = -5.05579e-17
Pressure gradient source: uncorrected Ubar = 0.992831, pressure gradient = 5.2483
smoothSolver:  Solving for omega, Initial residual = 0.156532, Final residual = 0.00909926, No Iterations 2
smoothSolver:  Solving for k, Initial residual = 0.138505, Final residual = 0.0089784, No Iterations 3
ExecutionTime = 0.047507 s  ClockTime = 0 s

Time = 14s

smoothSolver:  Solving for Ux, Initial residual = 0.0282982, Final residual = 0.00208374, No Iterations 4
smoothSolver:  Solving for Uy, Initial residual = 0.408336, Final residual = 0.0209955, No Iterations 3
Pressure gradient source: uncorrected Ubar = 0.967089, pressure gradient = 8.20329
GAMG:  Solving for p, Initial residual = 0.160245, Final residual = 0.0138065, No Iterations 10
time step continuity errors : sum local = 0.152782, global = -4.37408e-17, cumulative = -9.42987e-17
Pressure gradient source: uncorrected Ubar = 0.993759, pressure gradient = 5.80863
smoothSolver:  Solving for omega, Initial residual = 0.140518, Final residual = 0.0128313, No Iterations 2
smoothSolver:  Solving for k, Initial residual = 0.104782, Final residual = 0.00896336, No Iterations 3
ExecutionTime = 0.050297 s  ClockTime = 0 s

Time = 15s

smoothSolver:  Solving for Ux, Initial residual = 0.0232469, Final residual = 0.0017882, No Iterations 4
smoothSolver:  Solving for Uy, Initial residual = 0.47581, Final residual = 0.025179, No Iterations 3
Pressure gradient source: uncorrected Ubar = 0.948934, pressure gradient = 11.4947
GAMG:  Solving for p, Initial residual = 0.203268, Final residual = 0.0159793, No Iterations 8
time step continuity errors : sum local = 0.165677, global = -9.5193e-17, cumulative = -1.89492e-16
Pressure gradient source: uncorrected Ubar = 0.991746, pressure gradient = 6.72769
smoothSolver:  Solving for omega, Initial residual = 0.10299, Final residual = 0.00626324, No Iterations 3
smoothSolver:  Solving for k, Initial residual = 0.0865069, Final residual = 0.00511794, No Iterations 4
ExecutionTime = 0.052956 s  ClockTime = 0 s

Time = 16s

smoothSolver:  Solving for Ux, Initial residual = 0.0198233, Final residual = 0.00165617, No Iterations 4
smoothSolver:  Solving for Uy, Initial residual = 0.364194, Final residual = 0.017728, No Iterations 3
Pressure gradient source: uncorrected Ubar = 0.988132, pressure gradient = 8.17622
GAMG:  Solving for p, Initial residual = 0.225233, Final residual = 0.0209339, No Iterations 10
time step continuity errors : sum local = 0.152668, global = 8.84641e-17, cumulative = -1.01028e-16
Pressure gradient source: uncorrected Ubar = 0.998343, pressure gradient = 6.92989
smoothSolver:  Solving for omega, Initial residual = 0.0979147, Final residual = 0.00652414, No Iterations 3
smoothSolver:  Solving for k, Initial residual = 0.0766729, Final residual = 0.00549626, No Iterations 4
ExecutionTime = 0.055721 s  ClockTime = 0 s

Time = 17s

smoothSolver:  Solving for Ux, Initial residual = 0.0164103, Final residual = 0.00157571, No Iterations 4
smoothSolver:  Solving for Uy, Initial residual = 0.331479, Final residual = 0.0213789, No Iterations 3
Pressure gradient source: uncorrected Ubar = 0.99583, pressure gradient = 7.50967
GAMG:  Solving for p, Initial residual = 0.107141, Final residual = 0.009129, No Iterations 4
time step continuity errors : sum local = 0.138223, global = 4.05492e-17, cumulative = -6.04784e-17
Pressure gradient source: uncorrected Ubar = 0.996862, pressure gradient = 7.36615
smoothSolver:  Solving for omega, Initial residual = 0.0779851, Final residual = 0.00680205, No Iterations 3
smoothSolver:  Solving for k, Initial residual = 0.0679322, Final residual = 0.00563274, No Iterations 4
ExecutionTime = 0.05821 s  ClockTime = 0 s

Time = 18s

smoothSolver:  Solving for Ux, Initial residual = 0.0150357, Final residual = 0.000984013, No Iterations 5
smoothSolver:  Solving for Uy, Initial residual = 0.325732, Final residual = 0.0223446, No Iterations 3
Pressure gradient source: uncorrected Ubar = 1.02546, pressure gradient = 3.4748
GAMG:  Solving for p, Initial residual = 0.0969111, Final residual = 0.00782393, No Iterations 9
time step continuity errors : sum local = 0.139557, global = 4.4886e-17, cumulative = -1.55924e-17
Pressure gradient source: uncorrected Ubar = 1.00159, pressure gradient = 7.12328
smoothSolver:  Solving for omega, Initial residual = 0.0680676, Final residual = 0.00404319, No Iterations 4
smoothSolver:  Solving for k, Initial residual = 0.0618096, Final residual = 0.00589272, No Iterations 4
ExecutionTime = 0.060946 s  ClockTime = 0 s

Time = 19s

smoothSolver:  Solving for Ux, Initial residual = 0.0136896, Final residual = 0.000946674, No Iterations 5
smoothSolver:  Solving for Uy, Initial residual = 0.287431, Final residual = 0.0206199, No Iterations 3
Pressure gradient source: uncorrected Ubar = 1.01154, pressure gradient = 5.09255
GAMG:  Solving for p, Initial residual = 0.109487, Final residual = 0.0107481, No Iterations 7
time step continuity errors : sum local = 0.155508, global = -6.96049e-17, cumulative = -8.51973e-17
Pressure gradient source: uncorrected Ubar = 0.997541, pressure gradient = 7.55593
smoothSolver:  Solving for omega, Initial residual = 0.0586681, Final residual = 0.00415274, No Iterations 4
smoothSolver:  Solving for k, Initial residual = 0.056156, Final residual = 0.00363963, No Iterations 5
ExecutionTime = 0.063607 s  ClockTime = 0 s

Time = 20s

smoothSolver:  Solving for Ux, Initial residual = 0.0126822, Final residual = 0.000926756, No Iterations 5
smoothSolver:  Solving for Uy, Initial residual = 0.223448, Final residual = 0.0186882, No Iterations 3
Pressure gradient source: uncorrected Ubar = 1.02022, pressure gradient = 3.55183
GAMG:  Solving for p, Initial residual = 0.106494, Final residual = 0.0077466, No Iterations 8
time step continuity errors : sum local = 0.105569, global = 2.22261e-17, cumulative = -6.29712e-17
Pressure gradient source: uncorrected Ubar = 1.00055, pressure gradient = 7.44644
smoothSolver:  Solving for omega, Initial residual = 0.0503621, Final residual = 0.00419518, No Iterations 4
smoothSolver:  Solving for k, Initial residual = 0.0510807, Final residual = 0.00371833, No Iterations 5
ExecutionTime = 0.066298 s  ClockTime = 0 s

Time = 21s

smoothSolver:  Solving for Ux, Initial residual = 0.012041, Final residual = 0.000900347, No Iterations 5
smoothSolver:  Solving for Uy, Initial residual = 0.227166, Final residual = 0.018753, No Iterations 3
Pressure gradient source: uncorrected Ubar = 1.01033, pressure gradient = 5.21276
GAMG:  Solving for p, Initial residual = 0.0905674, Final residual = 0.00621859, No Iterations 9
time step continuity errors : sum local = 0.0751823, global = -1.35308e-16, cumulative = -1.9828e-16
Pressure gradient source: uncorrected Ubar = 1.0002, pressure gradient = 7.40249
smoothSolver:  Solving for omega, Initial residual = 0.0469882, Final residual = 0.00453978, No Iterations 4
smoothSolver:  Solving for k, Initial residual = 0.0459787, Final residual = 0.00362224, No Iterations 5
ExecutionTime = 0.069041 s  ClockTime = 0 s

Time = 22s

smoothSolver:  Solving for Ux, Initial residual = 0.0114239, Final residual = 0.000874334, No Iterations 5
smoothSolver:  Solving for Uy, Initial residual = 0.263188, Final residual = 0.023989, No Iterations 3
Pressure gradient source: uncorrected Ubar = 1.00242, pressure gradient = 6.83377
GAMG:  Solving for p, Initial residual = 0.0883322, Final residual = 0.007989, No Iterations 9
time step continuity errors : sum local = 0.0676513, global = 7.37257e-18, cumulative = -1.90907e-16
Pressure gradient source: uncorrected Ubar = 1.00029, pressure gradient = 7.33393
smoothSolver:  Solving for omega, Initial residual = 0.0463142, Final residual = 0.0029248, No Iterations 5
smoothSolver:  Solving for k, Initial residual = 0.0421932, Final residual = 0.00363603, No Iterations 5
ExecutionTime = 0.071808 s  ClockTime = 0 s

Time = 23s

smoothSolver:  Solving for Ux, Initial residual = 0.0108975, Final residual = 0.000846548, No Iterations 5
smoothSolver:  Solving for Uy, Initial residual = 0.249758, Final residual = 0.0141498, No Iterations 4
Pressure gradient source: uncorrected Ubar = 0.997149, pressure gradient = 8.06109
GAMG:  Solving for p, Initial residual = 0.163641, Final residual = 0.0156654, No Iterations 9
time step continuity errors : sum local = 0.0622719, global = -1.03013e-16, cumulative = -2.9392e-16
Pressure gradient source: uncorrected Ubar = 0.999614, pressure gradient = 7.43225
smoothSolver:  Solving for omega, Initial residual = 0.0442845, Final residual = 0.00296474, No Iterations 5
smoothSolver:  Solving for k, Initial residual = 0.0388763, Final residual = 0.00359704, No Iterations 5
ExecutionTime = 0.074564 s  ClockTime = 0 s

Time = 24s

smoothSolver:  Solving for Ux, Initial residual = 0.0104526, Final residual = 0.000820283, No Iterations 5
smoothSolver:  Solving for Uy, Initial residual = 0.210912, Final residual = 0.0127785, No Iterations 4
Pressure gradient source: uncorrected Ubar = 0.994945, pressure gradient = 8.84923
GAMG:  Solving for p, Initial residual = 0.0456078, Final residual = 0.00393657, No Iterations 7
time step continuity errors : sum local = 0.0576272, global = -7.72223e-17, cumulative = -3.71142e-16
Pressure gradient source: uncorrected Ubar = 0.999181, pressure gradient = 7.66174
smoothSolver:  Solving for omega, Initial residual = 0.0426594, Final residual = 0.00285295, No Iterations 5
smoothSolver:  Solving for k, Initial residual = 0.035508, Final residual = 0.00338264, No Iterations 5
ExecutionTime = 0.077256 s  ClockTime = 0 s

Time = 25s

smoothSolver:  Solving for Ux, Initial residual = 0.010069, Final residual = 0.000797963, No Iterations 5
smoothSolver:  Solving for Uy, Initial residual = 0.191928, Final residual = 0.0116955, No Iterations 4
Pressure gradient source: uncorrected Ubar = 0.996957, pressure gradient = 8.59309
GAMG:  Solving for p, Initial residual = 0.028492, Final residual = 0.00280741, No Iterations 5
time step continuity errors : sum local = 0.0584735, global = -1.64731e-17, cumulative = -3.87615e-16
Pressure gradient source: uncorrected Ubar = 0.999641, pressure gradient = 7.77162
smoothSolver:  Solving for omega, Initial residual = 0.0414689, Final residual = 0.0028756, No Iterations 5
smoothSolver:  Solving for k, Initial residual = 0.0327418, Final residual = 0.00324145, No Iterations 5
ExecutionTime = 0.07986 s  ClockTime = 0 s

Time = 26s

smoothSolver:  Solving for Ux, Initial residual = 0.00971604, Final residual = 0.000776729, No Iterations 5
smoothSolver:  Solving for Uy, Initial residual = 0.165959, Final residual = 0.0108255, No Iterations 4
Pressure gradient source: uncorrected Ubar = 0.999419, pressure gradient = 7.96298
GAMG:  Solving for p, Initial residual = 0.0183956, Final residual = 0.00149326, No Iterations 9
time step continuity errors : sum local = 0.0422368, global = -4.77049e-17, cumulative = -4.3532e-16
Pressure gradient source: uncorrected Ubar = 0.999937, pressure gradient = 7.79233
smoothSolver:  Solving for omega, Initial residual = 0.0413745, Final residual = 0.00301188, No Iterations 5
smoothSolver:  Solving for k, Initial residual = 0.0301642, Final residual = 0.0019538, No Iterations 6
ExecutionTime = 0.082626 s  ClockTime = 0 s

Time = 27s

smoothSolver:  Solving for Ux, Initial residual = 0.00938778, Final residual = 0.000755718, No Iterations 5
smoothSolver:  Solving for Uy, Initial residual = 0.151545, Final residual = 0.0110663, No Iterations 4
Pressure gradient source: uncorrected Ubar = 1.00374, pressure gradient = 6.48233
GAMG:  Solving for p, Initial residual = 0.012839, Final residual = 0.000949691, No Iterations 9
time step continuity errors : sum local = 0.0331281, global = -2.78117e-17, cumulative = -4.63132e-16
Pressure gradient source: uncorrected Ubar = 1.00049, pressure gradient = 7.61886
smoothSolver:  Solving for omega, Initial residual = 0.040278, Final residual = 0.00303049, No Iterations 5
smoothSolver:  Solving for k, Initial residual = 0.0278147, Final residual = 0.00185719, No Iterations 6
ExecutionTime = 0.085415 s  ClockTime = 0 s

Time = 28s

smoothSolver:  Solving for Ux, Initial residual = 0.00907473, Final residual = 0.000734776, No Iterations 5
smoothSolver:  Solving for Uy, Initial residual = 0.138855, Final residual = 0.0106608, No Iterations 4
Pressure gradient source: uncorrected Ubar = 1.00298, pressure gradient = 6.49204
GAMG:  Solving for p, Initial residual = 0.00884957, Final residual = 0.000831608, No Iterations 6
time step continuity errors : sum local = 0.0317629, global = -7.11237e-17, cumulative = -5.34255e-16
Pressure gradient source: uncorrected Ubar = 1.00034, pressure gradient = 7.48946
smoothSolver:  Solving for omega, Initial residual = 0.0404655, Final residual = 0.00304778, No Iterations 5
smoothSolver:  Solving for k, Initial residual = 0.0256878, Final residual = 0.00176093, No Iterations 6
ExecutionTime = 0.088043 s  ClockTime = 0 s

Time = 29s

smoothSolver:  Solving for Ux, Initial residual = 0.00878592, Final residual = 0.000715547, No Iterations 5
smoothSolver:  Solving for Uy, Initial residual = 0.122257, Final residual = 0.00933631, No Iterations 4
Pressure gradient source: uncorrected Ubar = 1.00142, pressure gradient = 6.91465
GAMG:  Solving for p, Initial residual = 0.00697744, Final residual = 0.000549445, No Iterations 8
time step continuity errors : sum local = 0.021184, global = -1.86491e-17, cumulative = -5.52905e-16
Pressure gradient source: uncorrected Ubar = 1.00006, pressure gradient = 7.46398
smoothSolver:  Solving for omega, Initial residual = 0.0395247, Final residual = 0.00329652, No Iterations 5
smoothSolver:  Solving for k, Initial residual = 0.023681, Final residual = 0.00164319, No Iterations 6
ExecutionTime = 0.090787 s  ClockTime = 0 s

Time = 30s

smoothSolver:  Solving for Ux, Initial residual = 0.00852982, Final residual = 0.000699257, No Iterations 5
smoothSolver:  Solving for Uy, Initial residual = 0.110314, Final residual = 0.00889622, No Iterations 4
Pressure gradient source: uncorrected Ubar = 1.0025, pressure gradient = 6.38676
GAMG:  Solving for p, Initial residual = 0.00563653, Final residual = 0.000530697, No Iterations 6
time step continuity errors : sum local = 0.0189757, global = -6.36706e-17, cumulative = -6.16575e-16
Pressure gradient source: uncorrected Ubar = 1.00022, pressure gradient = 7.37062
smoothSolver:  Solving for omega, Initial residual = 0.0401327, Final residual = 0.00340887, No Iterations 5
smoothSolver:  Solving for k, Initial residual = 0.0219427, Final residual = 0.00155265, No Iterations 6
ExecutionTime = 0.093452 s  ClockTime = 0 s

Time = 31s

smoothSolver:  Solving for Ux, Initial residual = 0.00828706, Final residual = 0.000682662, No Iterations 5
smoothSolver:  Solving for Uy, Initial residual = 0.0887503, Final residual = 0.00778964, No Iterations 4
Pressure gradient source: uncorrected Ubar = 1.00195, pressure gradient = 6.4803
GAMG:  Solving for p, Initial residual = 0.00486763, Final residual = 0.000409799, No Iterations 6
time step continuity errors : sum local = 0.0132725, global = 3.6862e-17, cumulative = -5.79713e-16
Pressure gradient source: uncorrected Ubar = 1.00007, pressure gradient = 7.33716
smoothSolver:  Solving for omega, Initial residual = 0.0384385, Final residual = 0.00342957, No Iterations 5
smoothSolver:  Solving for k, Initial residual = 0.0205238, Final residual = 0.00148371, No Iterations 6
ExecutionTime = 0.096072 s  ClockTime = 0 s

Time = 32s

smoothSolver:  Solving for Ux, Initial residual = 0.00804938, Final residual = 0.000664992, No Iterations 5
smoothSolver:  Solving for Uy, Initial residual = 0.0715317, Final residual = 0.00668018, No Iterations 4
Pressure gradient source: uncorrected Ubar = 1.00017, pressure gradient = 7.25557
GAMG:  Solving for p, Initial residual = 0.00416873, Final residual = 0.000281515, No Iterations 6
time step continuity errors : sum local = 0.0079944, global = -2.41777e-17, cumulative = -6.03891e-16
Pressure gradient source: uncorrected Ubar = 0.999795, pressure gradient = 7.43761
smoothSolver:  Solving for omega, Initial residual = 0.0385955, Final residual = 0.00354071, No Iterations 5
smoothSolver:  Solving for k, Initial residual = 0.019119, Final residual = 0.00140679, No Iterations 6
ExecutionTime = 0.098742 s  ClockTime = 0 s

Time = 33s

smoothSolver:  Solving for Ux, Initial residual = 0.00781929, Final residual = 0.000641149, No Iterations 5
smoothSolver:  Solving for Uy, Initial residual = 0.0619971, Final residual = 0.0058369, No Iterations 4
Pressure gradient source: uncorrected Ubar = 0.999835, pressure gradient = 7.52324
GAMG:  Solving for p, Initial residual = 0.00363583, Final residual = 0.000101403, No Iterations 5
time step continuity errors : sum local = 0.00242386, global = 1.3119e-16, cumulative = -4.72701e-16
Pressure gradient source: uncorrected Ubar = 0.999739, pressure gradient = 7.57297
smoothSolver:  Solving for omega, Initial residual = 0.0375787, Final residual = 0.00366213, No Iterations 5
smoothSolver:  Solving for k, Initial residual = 0.0175563, Final residual = 0.00131649, No Iterations 6
ExecutionTime = 0.10136 s  ClockTime = 0 s

Time = 34s

smoothSolver:  Solving for Ux, Initial residual = 0.00751496, Final residual = 0.000614417, No Iterations 5
smoothSolver:  Solving for Uy, Initial residual = 0.053986, Final residual = 0.00536503, No Iterations 4
Pressure gradient source: uncorrected Ubar = 0.996929, pressure gradient = 9.31263
GAMG:  Solving for p, Initial residual = 0.00329004, Final residual = 0.000141912, No Iterations 4
time step continuity errors : sum local = 0.00290659, global = 9.81203e-18, cumulative = -4.62889e-16
Pressure gradient source: uncorrected Ubar = 0.999263, pressure gradient = 7.9907
smoothSolver:  Solving for omega, Initial residual = 0.0366938, Final residual = 0.00363435, No Iterations 5
smoothSolver:  Solving for k, Initial residual = 0.0158415, Final residual = 0.00119506, No Iterations 6
ExecutionTime = 0.103901 s  ClockTime = 0 s

Time = 35s

smoothSolver:  Solving for Ux, Initial residual = 0.00720491, Final residual = 0.00058964, No Iterations 5
smoothSolver:  Solving for Uy, Initial residual = 0.0430337, Final residual = 0.00300754, No Iterations 5
Pressure gradient source: uncorrected Ubar = 0.997709, pressure gradient = 9.39248
GAMG:  Solving for p, Initial residual = 0.00294723, Final residual = 0.000191332, No Iterations 4
time step continuity errors : sum local = 0.00402995, global = 1.87974e-17, cumulative = -4.44092e-16
Pressure gradient source: uncorrected Ubar = 0.999403, pressure gradient = 8.35598
smoothSolver:  Solving for omega, Initial residual = 0.035143, Final residual = 0.00234061, No Iterations 6
smoothSolver:  Solving for k, Initial residual = 0.0143364, Final residual = 0.00108801, No Iterations 6
ExecutionTime = 0.106458 s  ClockTime = 0 s

Time = 36s

smoothSolver:  Solving for Ux, Initial residual = 0.00692599, Final residual = 0.000567299, No Iterations 5
smoothSolver:  Solving for Uy, Initial residual = 0.0340412, Final residual = 0.00274656, No Iterations 5
Pressure gradient source: uncorrected Ubar = 0.997632, pressure gradient = 9.9239
GAMG:  Solving for p, Initial residual = 0.0026292, Final residual = 0.000239247, No Iterations 6
time step continuity errors : sum local = 0.00454177, global = 8.93654e-17, cumulative = -3.54726e-16
Pressure gradient source: uncorrected Ubar = 0.999406, pressure gradient = 8.74941
smoothSolver:  Solving for omega, Initial residual = 0.0330473, Final residual = 0.00227394, No Iterations 6
smoothSolver:  Solving for k, Initial residual = 0.0131279, Final residual = 0.00100443, No Iterations 6
ExecutionTime = 0.109139 s  ClockTime = 0 s

Time = 37s

smoothSolver:  Solving for Ux, Initial residual = 0.00667879, Final residual = 0.000546967, No Iterations 5
smoothSolver:  Solving for Uy, Initial residual = 0.0290116, Final residual = 0.00259186, No Iterations 5
Pressure gradient source: uncorrected Ubar = 0.998421, pressure gradient = 9.89456
GAMG:  Solving for p, Initial residual = 0.00223438, Final residual = 0.000214437, No Iterations 8
time step continuity errors : sum local = 0.00376029, global = 9.1344e-17, cumulative = -2.63382e-16
Pressure gradient source: uncorrected Ubar = 0.999553, pressure gradient = 9.07387
smoothSolver:  Solving for omega, Initial residual = 0.0321348, Final residual = 0.00224066, No Iterations 6
smoothSolver:  Solving for k, Initial residual = 0.0119114, Final residual = 0.000916563, No Iterations 6
ExecutionTime = 0.111893 s  ClockTime = 0 s

Time = 38s

smoothSolver:  Solving for Ux, Initial residual = 0.00647428, Final residual = 0.000529726, No Iterations 5
smoothSolver:  Solving for Uy, Initial residual = 0.0258862, Final residual = 0.00251529, No Iterations 5
Pressure gradient source: uncorrected Ubar = 0.999813, pressure gradient = 9.21912
GAMG:  Solving for p, Initial residual = 0.00183524, Final residual = 0.00015843, No Iterations 12
time step continuity errors : sum local = 0.00249318, global = 2.77558e-17, cumulative = -2.35626e-16
Pressure gradient source: uncorrected Ubar = 0.9998, pressure gradient = 9.22929
smoothSolver:  Solving for omega, Initial residual = 0.0302201, Final residual = 0.0021443, No Iterations 6
smoothSolver:  Solving for k, Initial residual = 0.0108514, Final residual = 0.000838451, No Iterations 6
ExecutionTime = 0.114822 s  ClockTime = 0 s

Time = 39s

smoothSolver:  Solving for Ux, Initial residual = 0.00628449, Final residual = 0.000514278, No Iterations 5
smoothSolver:  Solving for Uy, Initial residual = 0.0250806, Final residual = 0.00163589, No Iterations 6
Pressure gradient source: uncorrected Ubar = 1.00044, pressure gradient = 8.86338
GAMG:  Solving for p, Initial residual = 0.00158424, Final residual = 0.000141817, No Iterations 12
time step continuity errors : sum local = 0.0018747, global = -1.17744e-16, cumulative = -3.53371e-16
Pressure gradient source: uncorrected Ubar = 0.999914, pressure gradient = 9.30061
smoothSolver:  Solving for omega, Initial residual = 0.0290704, Final residual = 0.00207479, No Iterations 6
smoothSolver:  Solving for k, Initial residual = 0.00990843, Final residual = 0.000763263, No Iterations 6
ExecutionTime = 0.117761 s  ClockTime = 0 s

Time = 40s

smoothSolver:  Solving for Ux, Initial residual = 0.00611245, Final residual = 0.000500682, No Iterations 5
smoothSolver:  Solving for Uy, Initial residual = 0.024505, Final residual = 0.00163897, No Iterations 6
Pressure gradient source: uncorrected Ubar = 1.00088, pressure gradient = 8.53044
GAMG:  Solving for p, Initial residual = 0.00134283, Final residual = 0.000112337, No Iterations 12
time step continuity errors : sum local = 0.00128379, global = -3.01951e-17, cumulative = -3.83566e-16
Pressure gradient source: uncorrected Ubar = 0.999992, pressure gradient = 9.30804
smoothSolver:  Solving for omega, Initial residual = 0.0279779, Final residual = 0.0020245, No Iterations 6
smoothSolver:  Solving for k, Initial residual = 0.00914708, Final residual = 0.00070514, No Iterations 6
ExecutionTime = 0.120696 s  ClockTime = 0 s

Time = 41s

smoothSolver:  Solving for Ux, Initial residual = 0.00595578, Final residual = 0.000488886, No Iterations 5
smoothSolver:  Solving for Uy, Initial residual = 0.0243932, Final residual = 0.00165933, No Iterations 6
Pressure gradient source: uncorrected Ubar = 1.00095, pressure gradient = 8.43324
GAMG:  Solving for p, Initial residual = 0.00116323, Final residual = 4.83555e-05, No Iterations 5
time step continuity errors : sum local = 0.000471828, global = -3.82181e-17, cumulative = -4.21784e-16
Pressure gradient source: uncorrected Ubar = 1.00001, pressure gradient = 9.30173
smoothSolver:  Solving for omega, Initial residual = 0.0267712, Final residual = 0.00193035, No Iterations 6
smoothSolver:  Solving for k, Initial residual = 0.00851977, Final residual = 0.000648044, No Iterations 6
ExecutionTime = 0.123365 s  ClockTime = 0 s

Time = 42s

smoothSolver:  Solving for Ux, Initial residual = 0.0058127, Final residual = 0.000478992, No Iterations 5
smoothSolver:  Solving for Uy, Initial residual = 0.025143, Final residual = 0.00172664, No Iterations 6
Pressure gradient source: uncorrected Ubar = 1.00099, pressure gradient = 8.34215
GAMG:  Solving for p, Initial residual = 0.0010408, Final residual = 9.44818e-05, No Iterations 3
time step continuity errors : sum local = 0.000636101, global = -7.57852e-17, cumulative = -4.97569e-16
Pressure gradient source: uncorrected Ubar = 1.00001, pressure gradient = 9.28737
smoothSolver:  Solving for omega, Initial residual = 0.025729, Final residual = 0.00186859, No Iterations 6
smoothSolver:  Solving for k, Initial residual = 0.00807491, Final residual = 0.00060909, No Iterations 6
ExecutionTime = 0.125933 s  ClockTime = 0 s

Time = 43s

smoothSolver:  Solving for Ux, Initial residual = 0.00568138, Final residual = 0.000470315, No Iterations 5
smoothSolver:  Solving for Uy, Initial residual = 0.0247308, Final residual = 0.00169542, No Iterations 6
Pressure gradient source: uncorrected Ubar = 1.00114, pressure gradient = 8.13039
GAMG:  Solving for p, Initial residual = 0.000870958, Final residual = 6.02603e-05, No Iterations 3
time step continuity errors : sum local = 0.000375736, global = -8.03188e-17, cumulative = -5.77888e-16
Pressure gradient source: uncorrected Ubar = 1.00004, pressure gradient = 9.24752
smoothSolver:  Solving for omega, Initial residual = 0.0250041, Final residual = 0.00178333, No Iterations 6
smoothSolver:  Solving for k, Initial residual = 0.00773342, Final residual = 0.000573812, No Iterations 6
ExecutionTime = 0.12849 s  ClockTime = 0 s

Time = 44s

smoothSolver:  Solving for Ux, Initial residual = 0.00556416, Final residual = 0.000462625, No Iterations 5
smoothSolver:  Solving for Uy, Initial residual = 0.0234072, Final residual = 0.00161251, No Iterations 6
Pressure gradient source: uncorrected Ubar = 1.00109, pressure gradient = 8.08679
GAMG:  Solving for p, Initial residual = 0.00076721, Final residual = 6.50378e-05, No Iterations 7
time step continuity errors : sum local = 0.000472577, global = -4.96024e-17, cumulative = -6.2749e-16
Pressure gradient source: uncorrected Ubar = 1.00003, pressure gradient = 9.21399
smoothSolver:  Solving for omega, Initial residual = 0.024086, Final residual = 0.00170559, No Iterations 6
smoothSolver:  Solving for k, Initial residual = 0.00748215, Final residual = 0.00055412, No Iterations 6
ExecutionTime = 0.131191 s  ClockTime = 0 s

Time = 45s

smoothSolver:  Solving for Ux, Initial residual = 0.00545689, Final residual = 0.000455516, No Iterations 5
smoothSolver:  Solving for Uy, Initial residual = 0.0221421, Final residual = 0.00153891, No Iterations 6
Pressure gradient source: uncorrected Ubar = 1.00111, pressure gradient = 7.96875
GAMG:  Solving for p, Initial residual = 0.000788372, Final residual = 7.18375e-05, No Iterations 7
time step continuity errors : sum local = 0.000525351, global = -2.5804e-17, cumulative = -6.53294e-16
Pressure gradient source: uncorrected Ubar = 1.00003, pressure gradient = 9.17543
smoothSolver:  Solving for omega, Initial residual = 0.0234928, Final residual = 0.00163423, No Iterations 6
smoothSolver:  Solving for k, Initial residual = 0.00728449, Final residual = 0.000539747, No Iterations 6
ExecutionTime = 0.133939 s  ClockTime = 0 s

Time = 46s

smoothSolver:  Solving for Ux, Initial residual = 0.00535777, Final residual = 0.000449483, No Iterations 5
smoothSolver:  Solving for Uy, Initial residual = 0.0213769, Final residual = 0.00149167, No Iterations 6
Pressure gradient source: uncorrected Ubar = 1.00112, pressure gradient = 7.86632
GAMG:  Solving for p, Initial residual = 0.000817393, Final residual = 7.05025e-05, No Iterations 7
time step continuity errors : sum local = 0.000493307, global = 3.3014e-17, cumulative = -6.2028e-16
Pressure gradient source: uncorrected Ubar = 1.00003, pressure gradient = 9.13826
smoothSolver:  Solving for omega, Initial residual = 0.0227918, Final residual = 0.00158675, No Iterations 6
smoothSolver:  Solving for k, Initial residual = 0.00716844, Final residual = 0.000536151, No Iterations 6
ExecutionTime = 0.136647 s  ClockTime = 0 s

Time = 47s

smoothSolver:  Solving for Ux, Initial residual = 0.00526552, Final residual = 0.000443747, No Iterations 5
smoothSolver:  Solving for Uy, Initial residual = 0.0211748, Final residual = 0.0014441, No Iterations 6
Pressure gradient source: uncorrected Ubar = 1.00115, pressure gradient = 7.71411
GAMG:  Solving for p, Initial residual = 0.000937845, Final residual = 8.9775e-05, No Iterations 5
time step continuity errors : sum local = 0.000543055, global = -8.68988e-17, cumulative = -7.07179e-16
Pressure gradient source: uncorrected Ubar = 1.00003, pressure gradient = 9.09879
smoothSolver:  Solving for omega, Initial residual = 0.0220536, Final residual = 0.00151877, No Iterations 6
smoothSolver:  Solving for k, Initial residual = 0.00706399, Final residual = 0.000529854, No Iterations 6
ExecutionTime = 0.139287 s  ClockTime = 0 s

Time = 48s

smoothSolver:  Solving for Ux, Initial residual = 0.00518222, Final residual = 0.000438365, No Iterations 5
smoothSolver:  Solving for Uy, Initial residual = 0.0210097, Final residual = 0.00140101, No Iterations 6
Pressure gradient source: uncorrected Ubar = 1.00118, pressure gradient = 7.55241
GAMG:  Solving for p, Initial residual = 0.0011489, Final residual = 0.000100518, No Iterations 5
time step continuity errors : sum local = 0.000508233, global = -5.1337e-17, cumulative = -7.58516e-16
Pressure gradient source: uncorrected Ubar = 1.00003, pressure gradient = 9.06124
smoothSolver:  Solving for omega, Initial residual = 0.0209261, Final residual = 0.00146994, No Iterations 6
smoothSolver:  Solving for k, Initial residual = 0.00699302, Final residual = 0.000522688, No Iterations 6
ExecutionTime = 0.141956 s  ClockTime = 0 s

Time = 49s

smoothSolver:  Solving for Ux, Initial residual = 0.00509897, Final residual = 0.000432662, No Iterations 5
smoothSolver:  Solving for Uy, Initial residual = 0.0207719, Final residual = 0.00135712, No Iterations 6
Pressure gradient source: uncorrected Ubar = 0.999886, pressure gradient = 9.22089
GAMG:  Solving for p, Initial residual = 0.00129307, Final residual = 0.000123977, No Iterations 11
time step continuity errors : sum local = 0.000566486, global = 1.58022e-17, cumulative = -7.42714e-16
Pressure gradient source: uncorrected Ubar = 0.999848, pressure gradient = 9.27407
smoothSolver:  Solving for omega, Initial residual = 0.0344253, Final residual = 0.00227742, No Iterations 4
smoothSolver:  Solving for k, Initial residual = 0.00709849, Final residual = 0.000517144, No Iterations 6
ExecutionTime = 0.144815 s  ClockTime = 0 s

Time = 50s

smoothSolver:  Solving for Ux, Initial residual = 0.00505305, Final residual = 0.000430967, No Iterations 5
smoothSolver:  Solving for Uy, Initial residual = 0.0220085, Final residual = 0.00217283, No Iterations 5
Pressure gradient source: uncorrected Ubar = 1.0025, pressure gradient = 6.0629
GAMG:  Solving for p, Initial residual = 0.00172865, Final residual = 7.34011e-05, No Iterations 3
time step continuity errors : sum local = 0.000367576, global = -3.53054e-18, cumulative = -7.46245e-16
Pressure gradient source: uncorrected Ubar = 1.00033, pressure gradient = 8.85102
smoothSolver:  Solving for omega, Initial residual = 0.0511934, Final residual = 0.00395715, No Iterations 3
smoothSolver:  Solving for k, Initial residual = 0.00679397, Final residual = 0.000521109, No Iterations 6
ExecutionTime = 0.147322 s  ClockTime = 0 s

Time = 51s

smoothSolver:  Solving for Ux, Initial residual = 0.00495837, Final residual = 0.000428188, No Iterations 5
smoothSolver:  Solving for Uy, Initial residual = 0.0210338, Final residual = 0.00210287, No Iterations 5
Pressure gradient source: uncorrected Ubar = 1.00342, pressure gradient = 4.11846
GAMG:  Solving for p, Initial residual = 0.00130171, Final residual = 0.000117281, No Iterations 3
time step continuity errors : sum local = 0.000553439, global = 1.88785e-17, cumulative = -7.27366e-16
Pressure gradient source: uncorrected Ubar = 1.0004, pressure gradient = 8.29782
smoothSolver:  Solving for omega, Initial residual = 0.0305749, Final residual = 0.00219986, No Iterations 5
smoothSolver:  Solving for k, Initial residual = 0.00676194, Final residual = 0.000517594, No Iterations 6
ExecutionTime = 0.149873 s  ClockTime = 0 s

Time = 52s

smoothSolver:  Solving for Ux, Initial residual = 0.00489964, Final residual = 0.000425277, No Iterations 5
smoothSolver:  Solving for Uy, Initial residual = 0.0185742, Final residual = 0.00120733, No Iterations 6
Pressure gradient source: uncorrected Ubar = 0.999951, pressure gradient = 8.36745
GAMG:  Solving for p, Initial residual = 0.00117189, Final residual = 7.88733e-05, No Iterations 4
time step continuity errors : sum local = 0.000341798, global = 9.13711e-17, cumulative = -6.35995e-16
Pressure gradient source: uncorrected Ubar = 0.999861, pressure gradient = 8.4967
smoothSolver:  Solving for omega, Initial residual = 0.0241257, Final residual = 0.00183327, No Iterations 5
smoothSolver:  Solving for k, Initial residual = 0.0067481, Final residual = 0.000518141, No Iterations 6
ExecutionTime = 0.152431 s  ClockTime = 0 s

Time = 53s

smoothSolver:  Solving for Ux, Initial residual = 0.00484054, Final residual = 0.000420506, No Iterations 5
smoothSolver:  Solving for Uy, Initial residual = 0.0175932, Final residual = 0.00114217, No Iterations 6
Pressure gradient source: uncorrected Ubar = 1.00085, pressure gradient = 7.19213
GAMG:  Solving for p, Initial residual = 0.000837855, Final residual = 8.08771e-05, No Iterations 6
time step continuity errors : sum local = 0.000267387, global = 1.07268e-16, cumulative = -5.28727e-16
Pressure gradient source: uncorrected Ubar = 0.999988, pressure gradient = 8.51559
smoothSolver:  Solving for omega, Initial residual = 0.0242315, Final residual = 0.00225239, No Iterations 4
smoothSolver:  Solving for k, Initial residual = 0.0068003, Final residual = 0.000514092, No Iterations 6
ExecutionTime = 0.155073 s  ClockTime = 0 s

Time = 54s

smoothSolver:  Solving for Ux, Initial residual = 0.00479601, Final residual = 0.000418717, No Iterations 5
smoothSolver:  Solving for Uy, Initial residual = 0.0169823, Final residual = 0.00112056, No Iterations 6
Pressure gradient source: uncorrected Ubar = 1.00103, pressure gradient = 7.00944
GAMG:  Solving for p, Initial residual = 0.000968358, Final residual = 9.48217e-05, No Iterations 7
time step continuity errors : sum local = 0.000390844, global = 1.75641e-17, cumulative = -5.11162e-16
Pressure gradient source: uncorrected Ubar = 1.00009, pressure gradient = 8.38817
smoothSolver:  Solving for omega, Initial residual = 0.0301136, Final residual = 0.00247986, No Iterations 4
smoothSolver:  Solving for k, Initial residual = 0.00654219, Final residual = 0.000509569, No Iterations 6
ExecutionTime = 0.157784 s  ClockTime = 0 s

Time = 55s

smoothSolver:  Solving for Ux, Initial residual = 0.00471257, Final residual = 0.000415356, No Iterations 5
smoothSolver:  Solving for Uy, Initial residual = 0.0171224, Final residual = 0.0011414, No Iterations 6
Pressure gradient source: uncorrected Ubar = 1.00285, pressure gradient = 3.98616
GAMG:  Solving for p, Initial residual = 0.00074014, Final residual = 6.83291e-05, No Iterations 12
time step continuity errors : sum local = 0.000285172, global = 3.20653e-17, cumulative = -4.79097e-16
Pressure gradient source: uncorrected Ubar = 1.00032, pressure gradient = 7.8863
smoothSolver:  Solving for omega, Initial residual = 0.0214604, Final residual = 0.00184995, No Iterations 5
smoothSolver:  Solving for k, Initial residual = 0.00649444, Final residual = 0.000504867, No Iterations 6
ExecutionTime = 0.160726 s  ClockTime = 0 s

Time = 56s

smoothSolver:  Solving for Ux, Initial residual = 0.00466663, Final residual = 0.00041263, No Iterations 5
smoothSolver:  Solving for Uy, Initial residual = 0.0170528, Final residual = 0.00115365, No Iterations 6
Pressure gradient source: uncorrected Ubar = 1.00026, pressure gradient = 7.45925
GAMG:  Solving for p, Initial residual = 0.000604992, Final residual = 5.87672e-05, No Iterations 14
time step continuity errors : sum local = 0.000215609, global = -5.26516e-17, cumulative = -5.31749e-16
Pressure gradient source: uncorrected Ubar = 0.999913, pressure gradient = 8.02706
smoothSolver:  Solving for omega, Initial residual = 0.0182956, Final residual = 0.00163038, No Iterations 5
smoothSolver:  Solving for k, Initial residual = 0.00643985, Final residual = 0.000492791, No Iterations 6
ExecutionTime = 0.163809 s  ClockTime = 0 s

Time = 57s

smoothSolver:  Solving for Ux, Initial residual = 0.00461226, Final residual = 0.00040801, No Iterations 5
smoothSolver:  Solving for Uy, Initial residual = 0.0172161, Final residual = 0.00118681, No Iterations 6
Pressure gradient source: uncorrected Ubar = 0.999153, pressure gradient = 9.48972
GAMG:  Solving for p, Initial residual = 0.000726913, Final residual = 6.54924e-05, No Iterations 14
time step continuity errors : sum local = 0.000184826, global = -1.31121e-17, cumulative = -5.44861e-16
Pressure gradient source: uncorrected Ubar = 0.999758, pressure gradient = 8.4454
smoothSolver:  Solving for omega, Initial residual = 0.0314385, Final residual = 0.00261759, No Iterations 3
smoothSolver:  Solving for k, Initial residual = 0.00654549, Final residual = 0.000481837, No Iterations 6
ExecutionTime = 0.166847 s  ClockTime = 0 s

Time = 58s

smoothSolver:  Solving for Ux, Initial residual = 0.00459061, Final residual = 0.000407616, No Iterations 5
smoothSolver:  Solving for Uy, Initial residual = 0.0174493, Final residual = 0.00123269, No Iterations 6
Pressure gradient source: uncorrected Ubar = 1.00174, pressure gradient = 5.78829
GAMG:  Solving for p, Initial residual = 0.000798888, Final residual = 6.4179e-05, No Iterations 10
time step continuity errors : sum local = 0.000279004, global = 4.36933e-17, cumulative = -5.01167e-16
Pressure gradient source: uncorrected Ubar = 1.00025, pressure gradient = 8.06398
smoothSolver:  Solving for omega, Initial residual = 0.0457977, Final residual = 0.00454558, No Iterations 2
smoothSolver:  Solving for k, Initial residual = 0.00626163, Final residual = 0.000486019, No Iterations 6
ExecutionTime = 0.169676 s  ClockTime = 0 s

Time = 59s

smoothSolver:  Solving for Ux, Initial residual = 0.00452218, Final residual = 0.000405781, No Iterations 5
smoothSolver:  Solving for Uy, Initial residual = 0.0181813, Final residual = 0.00130351, No Iterations 6
Pressure gradient source: uncorrected Ubar = 1.00423, pressure gradient = 1.05738
GAMG:  Solving for p, Initial residual = 0.000715404, Final residual = 6.03352e-05, No Iterations 14
time step continuity errors : sum local = 0.000224307, global = -5.66496e-18, cumulative = -5.06832e-16
Pressure gradient source: uncorrected Ubar = 1.00056, pressure gradient = 7.13453
smoothSolver:  Solving for omega, Initial residual = 0.026654, Final residual = 0.0026212, No Iterations 4
smoothSolver:  Solving for k, Initial residual = 0.00625666, Final residual = 0.000484729, No Iterations 6
ExecutionTime = 0.172668 s  ClockTime = 0 s

Time = 60s

smoothSolver:  Solving for Ux, Initial residual = 0.00449023, Final residual = 0.000404504, No Iterations 5
smoothSolver:  Solving for Uy, Initial residual = 0.0186954, Final residual = 0.00135711, No Iterations 6
Pressure gradient source: uncorrected Ubar = 0.999391, pressure gradient = 8.18124
GAMG:  Solving for p, Initial residual = 0.000683803, Final residual = 5.69902e-05, No Iterations 14
time step continuity errors : sum local = 0.000181275, global = 9.03958e-18, cumulative = -4.97793e-16
Pressure gradient source: uncorrected Ubar = 0.999786, pressure gradient = 7.50194
smoothSolver:  Solving for omega, Initial residual = 0.0201098, Final residual = 0.00136622, No Iterations 5
smoothSolver:  Solving for k, Initial residual = 0.00624987, Final residual = 0.000478221, No Iterations 6
ExecutionTime = 0.175696 s  ClockTime = 0 s

Time = 61s

smoothSolver:  Solving for Ux, Initial residual = 0.00444189, Final residual = 0.000399687, No Iterations 5
smoothSolver:  Solving for Uy, Initial residual = 0.0189439, Final residual = 0.00138736, No Iterations 6
Pressure gradient source: uncorrected Ubar = 0.998595, pressure gradient = 10.1213
GAMG:  Solving for p, Initial residual = 0.000747515, Final residual = 6.19892e-05, No Iterations 14
time step continuity errors : sum local = 0.000141144, global = -6.61228e-17, cumulative = -5.63916e-16
Pressure gradient source: uncorrected Ubar = 0.999683, pressure gradient = 8.09273
smoothSolver:  Solving for omega, Initial residual = 0.0367504, Final residual = 0.00227152, No Iterations 3
smoothSolver:  Solving for k, Initial residual = 0.0064427, Final residual = 0.000474702, No Iterations 6
ExecutionTime = 0.178743 s  ClockTime = 0 s

Time = 62s

smoothSolver:  Solving for Ux, Initial residual = 0.00441889, Final residual = 0.000399354, No Iterations 5
smoothSolver:  Solving for Uy, Initial residual = 0.0190977, Final residual = 0.00142016, No Iterations 6
Pressure gradient source: uncorrected Ubar = 1.00211, pressure gradient = 4.74831
GAMG:  Solving for p, Initial residual = 0.000424024, Final residual = 4.20663e-05, No Iterations 14
time step continuity errors : sum local = 0.000183583, global = 1.37694e-17, cumulative = -5.50146e-16
Pressure gradient source: uncorrected Ubar = 1.00034, pressure gradient = 7.5596
smoothSolver:  Solving for omega, Initial residual = 0.0587457, Final residual = 0.00381788, No Iterations 2
smoothSolver:  Solving for k, Initial residual = 0.00607209, Final residual = 0.000476882, No Iterations 6
ExecutionTime = 0.181797 s  ClockTime = 0 s

Time = 63s

smoothSolver:  Solving for Ux, Initial residual = 0.00435603, Final residual = 0.000397422, No Iterations 5
smoothSolver:  Solving for Uy, Initial residual = 0.0189797, Final residual = 0.00143351, No Iterations 6
Pressure gradient source: uncorrected Ubar = 1.00472, pressure gradient = -0.701503
GAMG:  Solving for p, Initial residual = 0.000494981, Final residual = 4.25309e-05, No Iterations 14
time step continuity errors : sum local = 0.000135406, global = -1.42167e-17, cumulative = -5.64363e-16
Pressure gradient source: uncorrected Ubar = 1.00065, pressure gradient = 6.4164
smoothSolver:  Solving for omega, Initial residual = 0.0293846, Final residual = 0.0023884, No Iterations 4
smoothSolver:  Solving for k, Initial residual = 0.00606338, Final residual = 0.000472519, No Iterations 6
ExecutionTime = 0.184801 s  ClockTime = 0 s

Time = 64s

smoothSolver:  Solving for Ux, Initial residual = 0.00432816, Final residual = 0.000396734, No Iterations 5
smoothSolver:  Solving for Uy, Initial residual = 0.0188381, Final residual = 0.00142884, No Iterations 6
Pressure gradient source: uncorrected Ubar = 0.99868, pressure gradient = 8.803
GAMG:  Solving for p, Initial residual = 0.000462911, Final residual = 4.17919e-05, No Iterations 12
time step continuity errors : sum local = 0.000107983, global = -9.22927e-18, cumulative = -5.73592e-16
Pressure gradient source: uncorrected Ubar = 0.99968, pressure gradient = 6.99478
smoothSolver:  Solving for omega, Initial residual = 0.020162, Final residual = 0.00174577, No Iterations 4
smoothSolver:  Solving for k, Initial residual = 0.00610066, Final residual = 0.000472275, No Iterations 6
ExecutionTime = 0.187735 s  ClockTime = 0 s

Time = 65s

smoothSolver:  Solving for Ux, Initial residual = 0.00428379, Final residual = 0.000391739, No Iterations 5
smoothSolver:  Solving for Uy, Initial residual = 0.0194177, Final residual = 0.00144597, No Iterations 6
Pressure gradient source: uncorrected Ubar = 0.999166, pressure gradient = 8.61291
GAMG:  Solving for p, Initial residual = 0.0124207, Final residual = 0.000459066, No Iterations 3
time step continuity errors : sum local = 0.000812712, global = -3.01409e-17, cumulative = -6.03733e-16
Pressure gradient source: uncorrected Ubar = 0.999762, pressure gradient = 7.45712
smoothSolver:  Solving for omega, Initial residual = 0.0322581, Final residual = 0.00220392, No Iterations 3
smoothSolver:  Solving for k, Initial residual = 0.00622562, Final residual = 0.000469513, No Iterations 6
ExecutionTime = 0.190238 s  ClockTime = 0 s

Time = 66s

smoothSolver:  Solving for Ux, Initial residual = 0.004256, Final residual = 0.000391104, No Iterations 5
smoothSolver:  Solving for Uy, Initial residual = 0.0149024, Final residual = 0.0010853, No Iterations 6
Pressure gradient source: uncorrected Ubar = 1.00216, pressure gradient = 3.73486
GAMG:  Solving for p, Initial residual = 0.009352, Final residual = 0.000492173, No Iterations 3
time step continuity errors : sum local = 0.00100214, global = 4.28801e-17, cumulative = -5.60853e-16
Pressure gradient source: uncorrected Ubar = 1.00033, pressure gradient = 6.88387
smoothSolver:  Solving for omega, Initial residual = 0.0504668, Final residual = 0.00355982, No Iterations 2
smoothSolver:  Solving for k, Initial residual = 0.00593511, Final residual = 0.00046928, No Iterations 6
ExecutionTime = 0.192737 s  ClockTime = 0 s

Time = 67s

smoothSolver:  Solving for Ux, Initial residual = 0.0042075, Final residual = 0.000389488, No Iterations 5
smoothSolver:  Solving for Uy, Initial residual = 0.0136485, Final residual = 0.000989137, No Iterations 6
Pressure gradient source: uncorrected Ubar = 1.00353, pressure gradient = 0.188459
GAMG:  Solving for p, Initial residual = 0.009258, Final residual = 0.000519552, No Iterations 3
time step continuity errors : sum local = 0.000731107, global = 1.03271e-17, cumulative = -5.50526e-16
Pressure gradient source: uncorrected Ubar = 1.00045, pressure gradient = 6.03169
smoothSolver:  Solving for omega, Initial residual = 0.0224949, Final residual = 0.00195115, No Iterations 4
smoothSolver:  Solving for k, Initial residual = 0.00595908, Final residual = 0.000469239, No Iterations 6
ExecutionTime = 0.195256 s  ClockTime = 0 s

Time = 68s

smoothSolver:  Solving for Ux, Initial residual = 0.00418041, Final residual = 0.000388396, No Iterations 5
smoothSolver:  Solving for Uy, Initial residual = 0.0207121, Final residual = 0.00153103, No Iterations 6
Pressure gradient source: uncorrected Ubar = 0.998699, pressure gradient = 8.55392
GAMG:  Solving for p, Initial residual = 0.0062024, Final residual = 0.00057117, No Iterations 4
time step continuity errors : sum local = 0.000922481, global = 3.58333e-17, cumulative = -5.14693e-16
Pressure gradient source: uncorrected Ubar = 0.99969, pressure gradient = 6.63233
smoothSolver:  Solving for omega, Initial residual = 0.0143586, Final residual = 0.000960491, No Iterations 5
smoothSolver:  Solving for k, Initial residual = 0.00596612, Final residual = 0.000467254, No Iterations 6
ExecutionTime = 0.19784 s  ClockTime = 0 s

Time = 69s

smoothSolver:  Solving for Ux, Initial residual = 0.00412454, Final residual = 0.000384295, No Iterations 5
smoothSolver:  Solving for Uy, Initial residual = 0.0230415, Final residual = 0.00171433, No Iterations 6
Pressure gradient source: uncorrected Ubar = 1.00192, pressure gradient = 2.86081
GAMG:  Solving for p, Initial residual = 0.00498298, Final residual = 0.000365421, No Iterations 3
time step continuity errors : sum local = 0.000822066, global = -2.18469e-17, cumulative = -5.36539e-16
Pressure gradient source: uncorrected Ubar = 1.00022, pressure gradient = 6.19155
smoothSolver:  Solving for omega, Initial residual = 0.0112425, Final residual = 0.000782587, No Iterations 6
smoothSolver:  Solving for k, Initial residual = 0.00580317, Final residual = 0.000461238, No Iterations 6
ExecutionTime = 0.200362 s  ClockTime = 0 s

Time = 70s

smoothSolver:  Solving for Ux, Initial residual = 0.00408217, Final residual = 0.000381241, No Iterations 5
smoothSolver:  Solving for Uy, Initial residual = 0.0192234, Final residual = 0.00145774, No Iterations 6
Pressure gradient source: uncorrected Ubar = 1.00045, pressure gradient = 5.27407
GAMG:  Solving for p, Initial residual = 0.00664358, Final residual = 0.000422059, No Iterations 3
time step continuity errors : sum local = 0.000584039, global = -2.09251e-17, cumulative = -5.57465e-16
Pressure gradient source: uncorrected Ubar = 0.999962, pressure gradient = 6.27011
smoothSolver:  Solving for omega, Initial residual = 0.0104871, Final residual = 0.000691879, No Iterations 6
smoothSolver:  Solving for k, Initial residual = 0.00581858, Final residual = 0.000459004, No Iterations 6
ExecutionTime = 0.202948 s  ClockTime = 0 s

Time = 71s

smoothSolver:  Solving for Ux, Initial residual = 0.00405001, Final residual = 0.000377611, No Iterations 5
smoothSolver:  Solving for Uy, Initial residual = 0.0234022, Final residual = 0.00172379, No Iterations 6
Pressure gradient source: uncorrected Ubar = 0.999855, pressure gradient = 6.57955
GAMG:  Solving for p, Initial residual = 0.011459, Final residual = 0.00112099, No Iterations 2
time step continuity errors : sum local = 0.00131822, global = 4.25381e-17, cumulative = -5.14926e-16
Pressure gradient source: uncorrected Ubar = 0.999879, pressure gradient = 6.52812
smoothSolver:  Solving for omega, Initial residual = 0.0126051, Final residual = 0.000873674, No Iterations 5
smoothSolver:  Solving for k, Initial residual = 0.0058055, Final residual = 0.000455709, No Iterations 6
ExecutionTime = 0.205438 s  ClockTime = 0 s

Time = 72s

smoothSolver:  Solving for Ux, Initial residual = 0.00401057, Final residual = 0.000375127, No Iterations 5
smoothSolver:  Solving for Uy, Initial residual = 0.0224747, Final residual = 0.00168029, No Iterations 6
Pressure gradient source: uncorrected Ubar = 1.00141, pressure gradient = 3.58122
GAMG:  Solving for p, Initial residual = 0.00576055, Final residual = 0.000374479, No Iterations 3
time step continuity errors : sum local = 0.000676734, global = 2.19415e-17, cumulative = -4.92985e-16
Pressure gradient source: uncorrected Ubar = 1.00016, pressure gradient = 6.188
smoothSolver:  Solving for omega, Initial residual = 0.0153088, Final residual = 0.00103886, No Iterations 5
smoothSolver:  Solving for k, Initial residual = 0.00565236, Final residual = 0.000451287, No Iterations 6
ExecutionTime = 0.207977 s  ClockTime = 0 s

Time = 73s

smoothSolver:  Solving for Ux, Initial residual = 0.00396524, Final residual = 0.000372028, No Iterations 5
smoothSolver:  Solving for Uy, Initial residual = 0.0154434, Final residual = 0.00117286, No Iterations 6
Pressure gradient source: uncorrected Ubar = 1.00103, pressure gradient = 3.90364
GAMG:  Solving for p, Initial residual = 0.00927638, Final residual = 0.00064407, No Iterations 3
time step continuity errors : sum local = 0.000692915, global = -5.94551e-17, cumulative = -5.5244e-16
Pressure gradient source: uncorrected Ubar = 1.00006, pressure gradient = 6.05969
smoothSolver:  Solving for omega, Initial residual = 0.0121566, Final residual = 0.000955994, No Iterations 5
smoothSolver:  Solving for k, Initial residual = 0.00571133, Final residual = 0.000450715, No Iterations 6
ExecutionTime = 0.210493 s  ClockTime = 0 s

Time = 74s

smoothSolver:  Solving for Ux, Initial residual = 0.00393873, Final residual = 0.000369198, No Iterations 5
smoothSolver:  Solving for Uy, Initial residual = 0.0234978, Final residual = 0.0017466, No Iterations 6
Pressure gradient source: uncorrected Ubar = 0.998694, pressure gradient = 9.00351
GAMG:  Solving for p, Initial residual = 0.0176371, Final residual = 0.00160529, No Iterations 2
time step continuity errors : sum local = 0.00167413, global = -1.41491e-17, cumulative = -5.66589e-16
Pressure gradient source: uncorrected Ubar = 0.999709, pressure gradient = 6.71444
smoothSolver:  Solving for omega, Initial residual = 0.0179691, Final residual = 0.00172352, No Iterations 3
smoothSolver:  Solving for k, Initial residual = 0.00575738, Final residual = 0.000448539, No Iterations 6
ExecutionTime = 0.21295 s  ClockTime = 0 s

Time = 75s

smoothSolver:  Solving for Ux, Initial residual = 0.00391213, Final residual = 0.000367172, No Iterations 5
smoothSolver:  Solving for Uy, Initial residual = 0.0223339, Final residual = 0.00167569, No Iterations 6
Pressure gradient source: uncorrected Ubar = 1.00236, pressure gradient = 1.68176
GAMG:  Solving for p, Initial residual = 0.00820643, Final residual = 0.000488983, No Iterations 3
time step continuity errors : sum local = 0.000872375, global = -4.06307e-17, cumulative = -6.0722e-16
Pressure gradient source: uncorrected Ubar = 1.00036, pressure gradient = 5.95478
smoothSolver:  Solving for omega, Initial residual = 0.0225762, Final residual = 0.00214104, No Iterations 3
smoothSolver:  Solving for k, Initial residual = 0.00558467, Final residual = 0.000449116, No Iterations 6
ExecutionTime = 0.215447 s  ClockTime = 0 s

Time = 76s

smoothSolver:  Solving for Ux, Initial residual = 0.00387331, Final residual = 0.000365268, No Iterations 5
smoothSolver:  Solving for Uy, Initial residual = 0.0123866, Final residual = 0.000927733, No Iterations 6
Pressure gradient source: uncorrected Ubar = 1.00164, pressure gradient = 2.21416
GAMG:  Solving for p, Initial residual = 0.0142917, Final residual = 0.000889465, No Iterations 3
time step continuity errors : sum local = 0.000799451, global = -9.48687e-18, cumulative = -6.16707e-16
Pressure gradient source: uncorrected Ubar = 1.00016, pressure gradient = 5.59703
smoothSolver:  Solving for omega, Initial residual = 0.0149253, Final residual = 0.00140715, No Iterations 4
smoothSolver:  Solving for k, Initial residual = 0.00567497, Final residual = 0.0004486, No Iterations 6
ExecutionTime = 0.218027 s  ClockTime = 0 s

Time = 77s

smoothSolver:  Solving for Ux, Initial residual = 0.00385246, Final residual = 0.000363438, No Iterations 5
smoothSolver:  Solving for Uy, Initial residual = 0.02324, Final residual = 0.00172948, No Iterations 6
Pressure gradient source: uncorrected Ubar = 0.998036, pressure gradient = 10.1349
GAMG:  Solving for p, Initial residual = 0.0201943, Final residual = 0.00173708, No Iterations 2
time step continuity errors : sum local = 0.00178514, global = 1.78898e-17, cumulative = -5.98817e-16
Pressure gradient source: uncorrected Ubar = 0.999607, pressure gradient = 6.50551
smoothSolver:  Solving for omega, Initial residual = 0.0181786, Final residual = 0.00156582, No Iterations 3
smoothSolver:  Solving for k, Initial residual = 0.00573114, Final residual = 0.000448442, No Iterations 6
ExecutionTime = 0.220485 s  ClockTime = 0 s

Time = 78s

smoothSolver:  Solving for Ux, Initial residual = 0.00381743, Final residual = 0.000361164, No Iterations 5
smoothSolver:  Solving for Uy, Initial residual = 0.0234608, Final residual = 0.0017688, No Iterations 6
Pressure gradient source: uncorrected Ubar = 1.003, pressure gradient = -0.0741937
GAMG:  Solving for p, Initial residual = 0.00909805, Final residual = 0.000500953, No Iterations 3
time step continuity errors : sum local = 0.000847453, global = 7.88762e-18, cumulative = -5.90929e-16
Pressure gradient source: uncorrected Ubar = 1.00047, pressure gradient = 5.46915
smoothSolver:  Solving for omega, Initial residual = 0.0231283, Final residual = 0.00204424, No Iterations 3
smoothSolver:  Solving for k, Initial residual = 0.00553886, Final residual = 0.000447526, No Iterations 6
ExecutionTime = 0.222975 s  ClockTime = 0 s

Time = 79s

smoothSolver:  Solving for Ux, Initial residual = 0.00378562, Final residual = 0.000359829, No Iterations 5
smoothSolver:  Solving for Uy, Initial residual = 0.0124604, Final residual = 0.000934478, No Iterations 6
Pressure gradient source: uncorrected Ubar = 1.0013, pressure gradient = 2.41049
GAMG:  Solving for p, Initial residual = 0.0153318, Final residual = 0.000805225, No Iterations 3
time step continuity errors : sum local = 0.000696691, global = -7.92958e-17, cumulative = -6.70225e-16
Pressure gradient source: uncorrected Ubar = 1.0001, pressure gradient = 5.22332
smoothSolver:  Solving for omega, Initial residual = 0.0140516, Final residual = 0.00133986, No Iterations 4
smoothSolver:  Solving for k, Initial residual = 0.00564272, Final residual = 0.000448605, No Iterations 6
ExecutionTime = 0.225473 s  ClockTime = 0 s

Time = 80s

smoothSolver:  Solving for Ux, Initial residual = 0.0037646, Final residual = 0.000357947, No Iterations 5
smoothSolver:  Solving for Uy, Initial residual = 0.0246637, Final residual = 0.00184079, No Iterations 6
Pressure gradient source: uncorrected Ubar = 0.998023, pressure gradient = 9.95629
GAMG:  Solving for p, Initial residual = 0.0201357, Final residual = 0.00137206, No Iterations 2
time step continuity errors : sum local = 0.00131339, global = -1.03406e-17, cumulative = -6.80566e-16
Pressure gradient source: uncorrected Ubar = 0.999599, pressure gradient = 6.1823
smoothSolver:  Solving for omega, Initial residual = 0.0175661, Final residual = 0.00150386, No Iterations 3
smoothSolver:  Solving for k, Initial residual = 0.00570215, Final residual = 0.000447367, No Iterations 6
ExecutionTime = 0.228021 s  ClockTime = 0 s

Time = 81s

smoothSolver:  Solving for Ux, Initial residual = 0.00372975, Final residual = 0.000355208, No Iterations 5
smoothSolver:  Solving for Uy, Initial residual = 0.0239817, Final residual = 0.00179303, No Iterations 6
Pressure gradient source: uncorrected Ubar = 1.00308, pressure gradient = -0.801429
GAMG:  Solving for p, Initial residual = 0.0104759, Final residual = 0.000624682, No Iterations 3
time step continuity errors : sum local = 0.000941407, global = -4.75689e-17, cumulative = -7.28135e-16
Pressure gradient source: uncorrected Ubar = 1.00049, pressure gradient = 5.06634
smoothSolver:  Solving for omega, Initial residual = 0.0226048, Final residual = 0.00195946, No Iterations 3
smoothSolver:  Solving for k, Initial residual = 0.00551641, Final residual = 0.000448233, No Iterations 6
ExecutionTime = 0.230583 s  ClockTime = 0 s

Time = 82s

smoothSolver:  Solving for Ux, Initial residual = 0.00370013, Final residual = 0.000354273, No Iterations 5
smoothSolver:  Solving for Uy, Initial residual = 0.0117709, Final residual = 0.000872732, No Iterations 6
Pressure gradient source: uncorrected Ubar = 1.00111, pressure gradient = 2.36144
GAMG:  Solving for p, Initial residual = 0.0202603, Final residual = 0.00114137, No Iterations 3
time step continuity errors : sum local = 0.000793603, global = 4.38155e-17, cumulative = -6.84319e-16
Pressure gradient source: uncorrected Ubar = 1.00007, pressure gradient = 4.8836
smoothSolver:  Solving for omega, Initial residual = 0.0137143, Final residual = 0.00128091, No Iterations 4
smoothSolver:  Solving for k, Initial residual = 0.00562348, Final residual = 0.000448465, No Iterations 6
ExecutionTime = 0.233091 s  ClockTime = 0 s

Time = 83s

smoothSolver:  Solving for Ux, Initial residual = 0.00368011, Final residual = 0.000352409, No Iterations 5
smoothSolver:  Solving for Uy, Initial residual = 0.0266135, Final residual = 0.00198661, No Iterations 6
Pressure gradient source: uncorrected Ubar = 0.997832, pressure gradient = 10.2707
GAMG:  Solving for p, Initial residual = 0.0226743, Final residual = 0.00188563, No Iterations 2
time step continuity errors : sum local = 0.00170789, global = -4.25278e-17, cumulative = -7.26847e-16
Pressure gradient source: uncorrected Ubar = 0.999569, pressure gradient = 5.95379
smoothSolver:  Solving for omega, Initial residual = 0.0184381, Final residual = 0.00143604, No Iterations 3
smoothSolver:  Solving for k, Initial residual = 0.00568822, Final residual = 0.000447182, No Iterations 6
ExecutionTime = 0.235545 s  ClockTime = 0 s

Time = 84s

smoothSolver:  Solving for Ux, Initial residual = 0.00364593, Final residual = 0.000349576, No Iterations 5
smoothSolver:  Solving for Uy, Initial residual = 0.0239623, Final residual = 0.00181003, No Iterations 6
Pressure gradient source: uncorrected Ubar = 1.00302, pressure gradient = -1.09314
GAMG:  Solving for p, Initial residual = 0.0118362, Final residual = 0.000666563, No Iterations 3
time step continuity errors : sum local = 0.00099562, global = 1.8445e-17, cumulative = -7.08402e-16
Pressure gradient source: uncorrected Ubar = 1.0005, pressure gradient = 4.79117
smoothSolver:  Solving for omega, Initial residual = 0.0240701, Final residual = 0.00186441, No Iterations 3
smoothSolver:  Solving for k, Initial residual = 0.0054965, Final residual = 0.000448881, No Iterations 6
ExecutionTime = 0.238067 s  ClockTime = 0 s

Time = 85s

smoothSolver:  Solving for Ux, Initial residual = 0.00362029, Final residual = 0.000348812, No Iterations 5
smoothSolver:  Solving for Uy, Initial residual = 0.0100617, Final residual = 0.000713454, No Iterations 6
Pressure gradient source: uncorrected Ubar = 1.00136, pressure gradient = 1.34896
GAMG:  Solving for p, Initial residual = 0.0281957, Final residual = 0.00142966, No Iterations 3
time step continuity errors : sum local = 0.000728077, global = -7.99599e-17, cumulative = -7.88362e-16
Pressure gradient source: uncorrected Ubar = 1.00012, pressure gradient = 4.48771
smoothSolver:  Solving for omega, Initial residual = 0.0141032, Final residual = 0.00121725, No Iterations 4
smoothSolver:  Solving for k, Initial residual = 0.00560115, Final residual = 0.000447852, No Iterations 6
ExecutionTime = 0.24059 s  ClockTime = 0 s

Time = 86s

smoothSolver:  Solving for Ux, Initial residual = 0.00360416, Final residual = 0.000347611, No Iterations 5
smoothSolver:  Solving for Uy, Initial residual = 0.0254191, Final residual = 0.00187779, No Iterations 6
Pressure gradient source: uncorrected Ubar = 0.997554, pressure gradient = 10.7605
GAMG:  Solving for p, Initial residual = 0.0269414, Final residual = 0.00199027, No Iterations 2
time step continuity errors : sum local = 0.00158974, global = -8.52998e-17, cumulative = -8.73662e-16
Pressure gradient source: uncorrected Ubar = 0.999521, pressure gradient = 5.71567
smoothSolver:  Solving for omega, Initial residual = 0.0184547, Final residual = 0.00134428, No Iterations 3
smoothSolver:  Solving for k, Initial residual = 0.00568188, Final residual = 0.000448288, No Iterations 6
ExecutionTime = 0.243039 s  ClockTime = 0 s

Time = 87s

smoothSolver:  Solving for Ux, Initial residual = 0.00356711, Final residual = 0.000344167, No Iterations 5
smoothSolver:  Solving for Uy, Initial residual = 0.0253353, Final residual = 0.00188707, No Iterations 6
Pressure gradient source: uncorrected Ubar = 1.00334, pressure gradient = -2.29436
GAMG:  Solving for p, Initial residual = 0.0145979, Final residual = 0.000862089, No Iterations 3
time step continuity errors : sum local = 0.00103403, global = -8.11807e-18, cumulative = -8.8178e-16
Pressure gradient source: uncorrected Ubar = 1.00056, pressure gradient = 4.36681
smoothSolver:  Solving for omega, Initial residual = 0.0242625, Final residual = 0.00176889, No Iterations 3
smoothSolver:  Solving for k, Initial residual = 0.00547838, Final residual = 0.000449499, No Iterations 6
ExecutionTime = 0.24557 s  ClockTime = 0 s

Time = 88s

smoothSolver:  Solving for Ux, Initial residual = 0.00354772, Final residual = 0.000344325, No Iterations 5
smoothSolver:  Solving for Uy, Initial residual = 0.00976638, Final residual = 0.000675703, No Iterations 6
Pressure gradient source: uncorrected Ubar = 1.00117, pressure gradient = 1.31994
GAMG:  Solving for p, Initial residual = 0.050172, Final residual = 0.0028318, No Iterations 3
time step continuity errors : sum local = 0.000867352, global = 4.49673e-17, cumulative = -8.36812e-16
Pressure gradient source: uncorrected Ubar = 1.00009, pressure gradient = 4.13474
smoothSolver:  Solving for omega, Initial residual = 0.0138232, Final residual = 0.00115922, No Iterations 4
smoothSolver:  Solving for k, Initial residual = 0.00558743, Final residual = 0.000448415, No Iterations 6
ExecutionTime = 0.248068 s  ClockTime = 0 s

Time = 89s

smoothSolver:  Solving for Ux, Initial residual = 0.0035329, Final residual = 0.000343246, No Iterations 5
smoothSolver:  Solving for Uy, Initial residual = 0.0282553, Final residual = 0.00209734, No Iterations 6
Pressure gradient source: uncorrected Ubar = 0.997472, pressure gradient = 10.8414
GAMG:  Solving for p, Initial residual = 0.0304496, Final residual = 0.00211184, No Iterations 2
time step continuity errors : sum local = 0.00139534, global = -7.67412e-17, cumulative = -9.13554e-16
Pressure gradient source: uncorrected Ubar = 0.999506, pressure gradient = 5.44587
[...]
smoothSolver:  Solving for k, Initial residual = 9.89345e-06, Final residual = 9.89345e-06, No Iterations 0
ExecutionTime = 11.55 s  ClockTime = 12 s

Time = 4446s

smoothSolver:  Solving for Ux, Initial residual = 9.31296e-06, Final residual = 9.31296e-06, No Iterations 0
smoothSolver:  Solving for Uy, Initial residual = 0.000137338, Final residual = 8.75634e-06, No Iterations 6
Pressure gradient source: uncorrected Ubar = 1, pressure gradient = 0.00329238
GAMG:  Solving for p, Initial residual = 8.3375e-06, Final residual = 9.7964e-07, No Iterations 9
time step continuity errors : sum local = 2.38822e-11, global = 2.77489e-19, cumulative = -1.77584e-15
Pressure gradient source: uncorrected Ubar = 1, pressure gradient = 0.00329239
smoothSolver:  Solving for omega, Initial residual = 7.91866e-06, Final residual = 7.91866e-06, No Iterations 0
smoothSolver:  Solving for k, Initial residual = 9.91212e-06, Final residual = 9.91212e-06, No Iterations 0
ExecutionTime = 11.5527 s  ClockTime = 12 s

Time = 4447s

smoothSolver:  Solving for Ux, Initial residual = 9.30702e-06, Final residual = 9.30702e-06, No Iterations 0
smoothSolver:  Solving for Uy, Initial residual = 0.000131973, Final residual = 1.31894e-05, No Iterations 5
Pressure gradient source: uncorrected Ubar = 1, pressure gradient = 0.00329239
GAMG:  Solving for p, Initial residual = 7.73972e-06, Final residual = 9.41716e-07, No Iterations 9
time step continuity errors : sum local = 2.35321e-11, global = -8.85296e-18, cumulative = -1.7847e-15
Pressure gradient source: uncorrected Ubar = 1, pressure gradient = 0.00329239
smoothSolver:  Solving for omega, Initial residual = 7.91804e-06, Final residual = 7.91804e-06, No Iterations 0
smoothSolver:  Solving for k, Initial residual = 9.93163e-06, Final residual = 9.93163e-06, No Iterations 0
ExecutionTime = 11.5553 s  ClockTime = 12 s

Time = 4448s

smoothSolver:  Solving for Ux, Initial residual = 9.3011e-06, Final residual = 9.3011e-06, No Iterations 0
smoothSolver:  Solving for Uy, Initial residual = 0.000129101, Final residual = 1.27805e-05, No Iterations 5
Pressure gradient source: uncorrected Ubar = 1, pressure gradient = 0.00329239
GAMG:  Solving for p, Initial residual = 7.31741e-06, Final residual = 8.99258e-07, No Iterations 9
time step continuity errors : sum local = 2.29384e-11, global = 1.82022e-18, cumulative = -1.78288e-15
Pressure gradient source: uncorrected Ubar = 1, pressure gradient = 0.00329239
smoothSolver:  Solving for omega, Initial residual = 7.91745e-06, Final residual = 7.91745e-06, No Iterations 0
smoothSolver:  Solving for k, Initial residual = 9.95172e-06, Final residual = 9.95172e-06, No Iterations 0
ExecutionTime = 11.558 s  ClockTime = 12 s

Time = 4449s

smoothSolver:  Solving for Ux, Initial residual = 9.2952e-06, Final residual = 9.2952e-06, No Iterations 0
smoothSolver:  Solving for Uy, Initial residual = 0.000127254, Final residual = 1.25104e-05, No Iterations 5
Pressure gradient source: uncorrected Ubar = 1, pressure gradient = 0.00329239
GAMG:  Solving for p, Initial residual = 6.97592e-06, Final residual = 8.48687e-07, No Iterations 9
time step continuity errors : sum local = 2.19784e-11, global = 7.89254e-19, cumulative = -1.78209e-15
Pressure gradient source: uncorrected Ubar = 1, pressure gradient = 0.0032924
smoothSolver:  Solving for omega, Initial residual = 7.91688e-06, Final residual = 7.91688e-06, No Iterations 0
smoothSolver:  Solving for k, Initial residual = 9.97264e-06, Final residual = 9.97264e-06, No Iterations 0
ExecutionTime = 11.5606 s  ClockTime = 12 s

Time = 4450s

smoothSolver:  Solving for Ux, Initial residual = 9.28934e-06, Final residual = 9.28934e-06, No Iterations 0
smoothSolver:  Solving for Uy, Initial residual = 0.000125618, Final residual = 1.22779e-05, No Iterations 5
Pressure gradient source: uncorrected Ubar = 1, pressure gradient = 0.0032924
GAMG:  Solving for p, Initial residual = 6.67796e-06, Final residual = 7.92902e-07, No Iterations 9
time step continuity errors : sum local = 2.07567e-11, global = 1.5997e-18, cumulative = -1.78049e-15
Pressure gradient source: uncorrected Ubar = 1, pressure gradient = 0.0032924
smoothSolver:  Solving for omega, Initial residual = 7.91634e-06, Final residual = 7.91634e-06, No Iterations 0
smoothSolver:  Solving for k, Initial residual = 9.99405e-06, Final residual = 9.99405e-06, No Iterations 0
ExecutionTime = 11.5632 s  ClockTime = 12 s

Time = 4451s

smoothSolver:  Solving for Ux, Initial residual = 9.28352e-06, Final residual = 9.28352e-06, No Iterations 0
smoothSolver:  Solving for Uy, Initial residual = 0.000123881, Final residual = 1.20417e-05, No Iterations 5
Pressure gradient source: uncorrected Ubar = 1, pressure gradient = 0.0032924
GAMG:  Solving for p, Initial residual = 6.40933e-06, Final residual = 9.35862e-07, No Iterations 7
time step continuity errors : sum local = 2.37272e-11, global = 5.60242e-18, cumulative = -1.77489e-15
Pressure gradient source: uncorrected Ubar = 1, pressure gradient = 0.0032924
smoothSolver:  Solving for omega, Initial residual = 7.91581e-06, Final residual = 7.91581e-06, No Iterations 0
smoothSolver:  Solving for k, Initial residual = 1.00161e-05, Final residual = 6.18344e-06, No Iterations 1
ExecutionTime = 11.5658 s  ClockTime = 12 s

Time = 4452s

smoothSolver:  Solving for Ux, Initial residual = 9.28096e-06, Final residual = 9.28096e-06, No Iterations 0
smoothSolver:  Solving for Uy, Initial residual = 0.000164318, Final residual = 1.53135e-05, No Iterations 5
Pressure gradient source: uncorrected Ubar = 1, pressure gradient = 0.0032924
GAMG:  Solving for p, Initial residual = 1.66705e-05, Final residual = 1.44872e-06, No Iterations 7
time step continuity errors : sum local = 3.44894e-11, global = -5.11003e-18, cumulative = -1.78e-15
Pressure gradient source: uncorrected Ubar = 1, pressure gradient = 0.00329235
smoothSolver:  Solving for omega, Initial residual = 7.91519e-06, Final residual = 7.91519e-06, No Iterations 0
smoothSolver:  Solving for k, Initial residual = 9.8619e-06, Final residual = 9.8619e-06, No Iterations 0
ExecutionTime = 11.5683 s  ClockTime = 12 s

Time = 4453s

smoothSolver:  Solving for Ux, Initial residual = 9.2764e-06, Final residual = 9.2764e-06, No Iterations 0
smoothSolver:  Solving for Uy, Initial residual = 0.000141287, Final residual = 1.38283e-05, No Iterations 5
Pressure gradient source: uncorrected Ubar = 1, pressure gradient = 0.00329235
GAMG:  Solving for p, Initial residual = 1.15557e-05, Final residual = 1.11547e-06, No Iterations 9
time step continuity errors : sum local = 2.70898e-11, global = -9.48353e-19, cumulative = -1.78094e-15
Pressure gradient source: uncorrected Ubar = 1, pressure gradient = 0.00329236
smoothSolver:  Solving for omega, Initial residual = 7.91437e-06, Final residual = 7.91437e-06, No Iterations 0
smoothSolver:  Solving for k, Initial residual = 9.881e-06, Final residual = 9.881e-06, No Iterations 0
ExecutionTime = 11.571 s  ClockTime = 12 s

Time = 4454s

smoothSolver:  Solving for Ux, Initial residual = 9.27062e-06, Final residual = 9.27062e-06, No Iterations 0
smoothSolver:  Solving for Uy, Initial residual = 0.000132937, Final residual = 1.31239e-05, No Iterations 5
Pressure gradient source: uncorrected Ubar = 1, pressure gradient = 0.00329236
GAMG:  Solving for p, Initial residual = 9.16392e-06, Final residual = 8.48103e-07, No Iterations 11
time step continuity errors : sum local = 2.10252e-11, global = 4.35726e-18, cumulative = -1.77659e-15
Pressure gradient source: uncorrected Ubar = 1, pressure gradient = 0.00329236
smoothSolver:  Solving for omega, Initial residual = 7.91363e-06, Final residual = 7.91363e-06, No Iterations 0
smoothSolver:  Solving for k, Initial residual = 9.90082e-06, Final residual = 9.90082e-06, No Iterations 0
ExecutionTime = 11.5737 s  ClockTime = 12 s

Time = 4455s

smoothSolver:  Solving for Ux, Initial residual = 9.26473e-06, Final residual = 9.26473e-06, No Iterations 0
smoothSolver:  Solving for Uy, Initial residual = 0.000128126, Final residual = 1.25769e-05, No Iterations 5
Pressure gradient source: uncorrected Ubar = 1, pressure gradient = 0.00329236
GAMG:  Solving for p, Initial residual = 7.93363e-06, Final residual = 9.27989e-07, No Iterations 9
time step continuity errors : sum local = 2.26252e-11, global = 1.71302e-18, cumulative = -1.77487e-15
Pressure gradient source: uncorrected Ubar = 1, pressure gradient = 0.00329236
smoothSolver:  Solving for omega, Initial residual = 7.91295e-06, Final residual = 7.91295e-06, No Iterations 0
smoothSolver:  Solving for k, Initial residual = 9.92109e-06, Final residual = 9.92109e-06, No Iterations 0
ExecutionTime = 11.5763 s  ClockTime = 12 s

Time = 4456s

smoothSolver:  Solving for Ux, Initial residual = 9.25879e-06, Final residual = 9.25879e-06, No Iterations 0
smoothSolver:  Solving for Uy, Initial residual = 0.000123195, Final residual = 1.18891e-05, No Iterations 5
Pressure gradient source: uncorrected Ubar = 1, pressure gradient = 0.00329236
GAMG:  Solving for p, Initial residual = 7.30935e-06, Final residual = 8.93173e-07, No Iterations 9
time step continuity errors : sum local = 2.22286e-11, global = 7.6799e-18, cumulative = -1.76719e-15
Pressure gradient source: uncorrected Ubar = 1, pressure gradient = 0.00329237
smoothSolver:  Solving for omega, Initial residual = 7.91231e-06, Final residual = 7.91231e-06, No Iterations 0
smoothSolver:  Solving for k, Initial residual = 9.94172e-06, Final residual = 9.94172e-06, No Iterations 0
ExecutionTime = 11.579 s  ClockTime = 12 s

Time = 4457s

smoothSolver:  Solving for Ux, Initial residual = 9.25287e-06, Final residual = 9.25287e-06, No Iterations 0
smoothSolver:  Solving for Uy, Initial residual = 0.000118931, Final residual = 1.13296e-05, No Iterations 5
Pressure gradient source: uncorrected Ubar = 1, pressure gradient = 0.00329237
GAMG:  Solving for p, Initial residual = 6.85998e-06, Final residual = 8.47026e-07, No Iterations 9
time step continuity errors : sum local = 2.15359e-11, global = -2.13891e-18, cumulative = -1.76933e-15
Pressure gradient source: uncorrected Ubar = 1, pressure gradient = 0.00329237
smoothSolver:  Solving for omega, Initial residual = 7.9117e-06, Final residual = 7.9117e-06, No Iterations 0
smoothSolver:  Solving for k, Initial residual = 9.96266e-06, Final residual = 9.96266e-06, No Iterations 0
ExecutionTime = 11.5817 s  ClockTime = 12 s

Time = 4458s

smoothSolver:  Solving for Ux, Initial residual = 9.24698e-06, Final residual = 9.24698e-06, No Iterations 0
smoothSolver:  Solving for Uy, Initial residual = 0.000115655, Final residual = 1.09189e-05, No Iterations 5
Pressure gradient source: uncorrected Ubar = 1, pressure gradient = 0.00329237
GAMG:  Solving for p, Initial residual = 6.51225e-06, Final residual = 9.9614e-07, No Iterations 7
time step continuity errors : sum local = 2.48646e-11, global = -3.5209e-18, cumulative = -1.77285e-15
Pressure gradient source: uncorrected Ubar = 1, pressure gradient = 0.00329238
smoothSolver:  Solving for omega, Initial residual = 7.91112e-06, Final residual = 7.91112e-06, No Iterations 0
smoothSolver:  Solving for k, Initial residual = 9.98386e-06, Final residual = 9.98386e-06, No Iterations 0
ExecutionTime = 11.5843 s  ClockTime = 12 s

Time = 4459s

smoothSolver:  Solving for Ux, Initial residual = 9.24113e-06, Final residual = 9.24113e-06, No Iterations 0
smoothSolver:  Solving for Uy, Initial residual = 0.000112234, Final residual = 1.04557e-05, No Iterations 5
Pressure gradient source: uncorrected Ubar = 1, pressure gradient = 0.00329238
GAMG:  Solving for p, Initial residual = 6.36787e-06, Final residual = 8.0121e-07, No Iterations 9
time step continuity errors : sum local = 2.10262e-11, global = 6.76915e-18, cumulative = -1.76608e-15
Pressure gradient source: uncorrected Ubar = 1, pressure gradient = 0.00329238
smoothSolver:  Solving for omega, Initial residual = 7.91055e-06, Final residual = 7.91055e-06, No Iterations 0
smoothSolver:  Solving for k, Initial residual = 1.00053e-05, Final residual = 6.16848e-06, No Iterations 1
ExecutionTime = 11.5869 s  ClockTime = 12 s

Time = 4460s

smoothSolver:  Solving for Ux, Initial residual = 9.23831e-06, Final residual = 9.23831e-06, No Iterations 0
smoothSolver:  Solving for Uy, Initial residual = 0.000150534, Final residual = 1.40084e-05, No Iterations 5
Pressure gradient source: uncorrected Ubar = 1, pressure gradient = 0.00329238
GAMG:  Solving for p, Initial residual = 1.59049e-05, Final residual = 1.37257e-06, No Iterations 7
time step continuity errors : sum local = 3.25608e-11, global = 3.21609e-19, cumulative = -1.76576e-15
Pressure gradient source: uncorrected Ubar = 1, pressure gradient = 0.00329233
smoothSolver:  Solving for omega, Initial residual = 7.90988e-06, Final residual = 7.90988e-06, No Iterations 0
smoothSolver:  Solving for k, Initial residual = 9.85226e-06, Final residual = 9.85226e-06, No Iterations 0
ExecutionTime = 11.5895 s  ClockTime = 12 s

Time = 4461s

smoothSolver:  Solving for Ux, Initial residual = 9.23375e-06, Final residual = 9.23375e-06, No Iterations 0
smoothSolver:  Solving for Uy, Initial residual = 0.000132862, Final residual = 1.2586e-05, No Iterations 5
Pressure gradient source: uncorrected Ubar = 1, pressure gradient = 0.00329233
GAMG:  Solving for p, Initial residual = 1.06299e-05, Final residual = 8.6926e-07, No Iterations 11
time step continuity errors : sum local = 2.12148e-11, global = -2.91738e-18, cumulative = -1.76868e-15
Pressure gradient source: uncorrected Ubar = 1, pressure gradient = 0.00329233
smoothSolver:  Solving for omega, Initial residual = 7.90903e-06, Final residual = 7.90903e-06, No Iterations 0
smoothSolver:  Solving for k, Initial residual = 9.87081e-06, Final residual = 9.87081e-06, No Iterations 0
ExecutionTime = 11.5922 s  ClockTime = 12 s

Time = 4462s

smoothSolver:  Solving for Ux, Initial residual = 9.22794e-06, Final residual = 9.22794e-06, No Iterations 0
smoothSolver:  Solving for Uy, Initial residual = 0.000124465, Final residual = 1.19673e-05, No Iterations 5
Pressure gradient source: uncorrected Ubar = 1, pressure gradient = 0.00329233
GAMG:  Solving for p, Initial residual = 8.383e-06, Final residual = 9.51721e-07, No Iterations 9
time step continuity errors : sum local = 2.25943e-11, global = -5.29041e-18, cumulative = -1.77397e-15
Pressure gradient source: uncorrected Ubar = 1, pressure gradient = 0.00329234
smoothSolver:  Solving for omega, Initial residual = 7.90826e-06, Final residual = 7.90826e-06, No Iterations 0
smoothSolver:  Solving for k, Initial residual = 9.89008e-06, Final residual = 9.89008e-06, No Iterations 0
ExecutionTime = 11.5949 s  ClockTime = 12 s

Time = 4463s

smoothSolver:  Solving for Ux, Initial residual = 9.22202e-06, Final residual = 9.22202e-06, No Iterations 0
smoothSolver:  Solving for Uy, Initial residual = 0.000117496, Final residual = 1.11302e-05, No Iterations 5
Pressure gradient source: uncorrected Ubar = 1, pressure gradient = 0.00329234
GAMG:  Solving for p, Initial residual = 7.45215e-06, Final residual = 9.21237e-07, No Iterations 9
time step continuity errors : sum local = 2.22471e-11, global = -2.12213e-19, cumulative = -1.77418e-15
Pressure gradient source: uncorrected Ubar = 1, pressure gradient = 0.00329234
smoothSolver:  Solving for omega, Initial residual = 7.90755e-06, Final residual = 7.90755e-06, No Iterations 0
smoothSolver:  Solving for k, Initial residual = 9.90981e-06, Final residual = 9.90981e-06, No Iterations 0
ExecutionTime = 11.5975 s  ClockTime = 12 s

Time = 4464s

smoothSolver:  Solving for Ux, Initial residual = 9.21606e-06, Final residual = 9.21606e-06, No Iterations 0
smoothSolver:  Solving for Uy, Initial residual = 0.000111662, Final residual = 1.03869e-05, No Iterations 5
Pressure gradient source: uncorrected Ubar = 1, pressure gradient = 0.00329234
GAMG:  Solving for p, Initial residual = 6.83567e-06, Final residual = 8.81989e-07, No Iterations 9
time step continuity errors : sum local = 2.1814e-11, global = -2.45708e-18, cumulative = -1.77664e-15
Pressure gradient source: uncorrected Ubar = 1, pressure gradient = 0.00329235
smoothSolver:  Solving for omega, Initial residual = 7.90688e-06, Final residual = 7.90688e-06, No Iterations 0
smoothSolver:  Solving for k, Initial residual = 9.92991e-06, Final residual = 9.92991e-06, No Iterations 0
ExecutionTime = 11.6002 s  ClockTime = 12 s

Time = 4465s

smoothSolver:  Solving for Ux, Initial residual = 9.21012e-06, Final residual = 9.21012e-06, No Iterations 0
smoothSolver:  Solving for Uy, Initial residual = 0.000107205, Final residual = 9.8302e-06, No Iterations 5
Pressure gradient source: uncorrected Ubar = 1, pressure gradient = 0.00329235
GAMG:  Solving for p, Initial residual = 6.42981e-06, Final residual = 8.32779e-07, No Iterations 9
time step continuity errors : sum local = 2.1065e-11, global = -2.12985e-18, cumulative = -1.77877e-15
Pressure gradient source: uncorrected Ubar = 1, pressure gradient = 0.00329235
smoothSolver:  Solving for omega, Initial residual = 7.90624e-06, Final residual = 7.90624e-06, No Iterations 0
smoothSolver:  Solving for k, Initial residual = 9.95033e-06, Final residual = 9.95033e-06, No Iterations 0
ExecutionTime = 11.6028 s  ClockTime = 12 s

Time = 4466s

smoothSolver:  Solving for Ux, Initial residual = 9.20421e-06, Final residual = 9.20421e-06, No Iterations 0
smoothSolver:  Solving for Uy, Initial residual = 0.000103836, Final residual = 9.43399e-06, No Iterations 5
Pressure gradient source: uncorrected Ubar = 1, pressure gradient = 0.00329235
GAMG:  Solving for p, Initial residual = 6.14535e-06, Final residual = 9.68502e-07, No Iterations 7
time step continuity errors : sum local = 2.41279e-11, global = -5.33771e-18, cumulative = -1.78411e-15
Pressure gradient source: uncorrected Ubar = 1, pressure gradient = 0.00329235
smoothSolver:  Solving for omega, Initial residual = 7.90563e-06, Final residual = 7.90563e-06, No Iterations 0
smoothSolver:  Solving for k, Initial residual = 9.97225e-06, Final residual = 9.97225e-06, No Iterations 0
ExecutionTime = 11.6053 s  ClockTime = 12 s

Time = 4467s

smoothSolver:  Solving for Ux, Initial residual = 9.19834e-06, Final residual = 9.19834e-06, No Iterations 0
smoothSolver:  Solving for Uy, Initial residual = 0.000100255, Final residual = 8.97512e-06, No Iterations 5
Pressure gradient source: uncorrected Ubar = 1, pressure gradient = 0.00329235
GAMG:  Solving for p, Initial residual = 6.05317e-06, Final residual = 9.72941e-07, No Iterations 7
time step continuity errors : sum local = 2.45934e-11, global = -5.72451e-18, cumulative = -1.78983e-15
Pressure gradient source: uncorrected Ubar = 1, pressure gradient = 0.00329236
smoothSolver:  Solving for omega, Initial residual = 7.90504e-06, Final residual = 7.90504e-06, No Iterations 0
smoothSolver:  Solving for k, Initial residual = 9.99459e-06, Final residual = 9.99459e-06, No Iterations 0
ExecutionTime = 11.6079 s  ClockTime = 12 s

Time = 4468s

smoothSolver:  Solving for Ux, Initial residual = 9.19252e-06, Final residual = 9.19252e-06, No Iterations 0
smoothSolver:  Solving for Uy, Initial residual = 9.7427e-05, Final residual = 8.65488e-06, No Iterations 5
Pressure gradient source: uncorrected Ubar = 1, pressure gradient = 0.00329236
GAMG:  Solving for p, Initial residual = 5.8751e-06, Final residual = 9.47055e-07, No Iterations 7
time step continuity errors : sum local = 2.42682e-11, global = -6.61926e-19, cumulative = -1.79049e-15
Pressure gradient source: uncorrected Ubar = 1, pressure gradient = 0.00329236
smoothSolver:  Solving for omega, Initial residual = 7.90448e-06, Final residual = 7.90448e-06, No Iterations 0
smoothSolver:  Solving for k, Initial residual = 1.00175e-05, Final residual = 6.17171e-06, No Iterations 1
ExecutionTime = 11.6104 s  ClockTime = 12 s


SIMPLE solution converged in 4468 iterations

End

