/*---------------------------------------------------------------------------*\
  =========                 |
  \\      /  F ield         | OpenFOAM: The Open Source CFD Toolbox
   \\    /   O peration     | Website:  https://openfoam.org
    \\  /    A nd           | Version:  10
     \\/     M anipulation  |
\*---------------------------------------------------------------------------*/
Build  : 10-e450dce21ea5
Exec   : blockMesh
Date   : Jan 16 2023
Time   : 11:43:33
Host   : "w530-R9YK46P"
PID    : 14362
I/O    : uncollated
Case   : /home/jdmezazeron/gitDanielMezaZ/turbulenceVisualized/Data/SimulationFiles/E19_Re4747
nProcs : 1
sigFpe : Enabling floating point exception trapping (FOAM_SIGFPE).
fileModificationChecking : Monitoring run-time modified files using timeStampMaster (fileModificationSkew 10)
allowSystemOperations : Allowing user-supplied system call operations

// * * * * * * * * * * * * * * * * * * * * * * * * * * * * * * * * * * * * * //
Create time

Reading "blockMeshDict"

Creating block mesh from
    "system/blockMeshDict"
Creating block edges
No non-planar block faces defined
Creating topology blocks
Creating topology patches

Creating block mesh topology

Check topology

	Basic statistics
		Number of internal faces : 0
		Number of boundary faces : 6
		Number of defined boundary faces : 6
		Number of undefined boundary faces : 0
	Checking patch -> block consistency

Creating block offsets
Creating merge list .

Creating polyMesh from blockMesh
Creating patches
Creating cells
Creating points with scale 1
    Block 0 cell size :
        i : 0.5
        j : 0.00921276 .. 0.036851
        k : 2

Detected cyclic patches; ordering boundary faces

Writing polyMesh
----------------
Mesh Information
----------------
  boundingBox: (-1 0 -1) (1 1 1)
  nPoints: 510
  nCells: 200
  nFaces: 854
  nInternalFaces: 346
----------------
Patches
----------------
  patch 0 (start: 346 size: 50) name: inlet
  patch 1 (start: 396 size: 50) name: outlet
  patch 2 (start: 446 size: 4) name: fixedWalls-bottom
  patch 3 (start: 450 size: 4) name: fixedWalls-top
  patch 4 (start: 454 size: 400) name: frontAndBack

End

/*---------------------------------------------------------------------------*\
  =========                 |
  \\      /  F ield         | OpenFOAM: The Open Source CFD Toolbox
   \\    /   O peration     | Website:  https://openfoam.org
    \\  /    A nd           | Version:  10
     \\/     M anipulation  |
\*---------------------------------------------------------------------------*/
Build  : 10-e450dce21ea5
Exec   : simpleFoam
Date   : Jan 16 2023
Time   : 11:43:33
Host   : "w530-R9YK46P"
PID    : 14363
I/O    : uncollated
Case   : /home/jdmezazeron/gitDanielMezaZ/turbulenceVisualized/Data/SimulationFiles/E19_Re4747
nProcs : 1
sigFpe : Enabling floating point exception trapping (FOAM_SIGFPE).
fileModificationChecking : Monitoring run-time modified files using timeStampMaster (fileModificationSkew 10)
allowSystemOperations : Allowing user-supplied system call operations

// * * * * * * * * * * * * * * * * * * * * * * * * * * * * * * * * * * * * * //
Create time

Create mesh for time = 0


SIMPLE: Convergence criteria found
        U: tolerance 0.01
        p: tolerance 0.01
        omega: tolerance 0.0001

Reading field p

Reading field U

Reading/calculating face flux field phi

Selecting viscosity model Newtonian
Selecting turbulence model type RAS
Selecting RAS turbulence model kOmegaSST
Selecting patchDistMethod meshWave
RAS
{
    RASModel        kOmegaSST;
    turbulence      on;
    printCoeffs     on;
    alphaK1         0.85;
    alphaK2         1;
    alphaOmega1     0.5;
    alphaOmega2     0.856;
    gamma1          0.555556;
    gamma2          0.44;
    beta1           0.075;
    beta2           0.0828;
    betaStar        0.09;
    a1              0.31;
    b1              1;
    c1              10;
    F3              false;
}

No MRF models present

--> FOAM Warning : Creating fvModels from "system/fvOptions" rather than constant/fvModels
No fvModels present
--> FOAM Warning : Creating fvConstraints from "system/fvOptions"

Selecting finite volume constraint type meanVelocityForce
    Name: momentumSource
    - selecting all cells
    - selected 200 cell(s) with volume 4
    Initial pressure gradient = 0


Starting time loop

turbulenceFields stressComponents: storing fields:
    R

Time = 1s

smoothSolver:  Solving for Ux, Initial residual = 0, Final residual = 0, No Iterations 0
smoothSolver:  Solving for Uy, Initial residual = 0, Final residual = 0, No Iterations 0
Pressure gradient source: uncorrected Ubar = 0, pressure gradient = 2.3265
GAMG:  Solving for p, Initial residual = 0.999987, Final residual = 0.0537573, No Iterations 3
time step continuity errors : sum local = 4.22869e-17, global = -4.70181e-18, cumulative = -4.70181e-18
Pressure gradient source: uncorrected Ubar = 0.869376, pressure gradient = 0.303896
smoothSolver:  Solving for omega, Initial residual = 0.120252, Final residual = 0.00907425, No Iterations 1
bounding omega, min: -10.0251 max: 1588.41 average: 62.2989
smoothSolver:  Solving for k, Initial residual = 1, Final residual = 0.0291772, No Iterations 2
ExecutionTime = 0.013863 s  ClockTime = 0 s

Time = 2s

smoothSolver:  Solving for Ux, Initial residual = 0.215273, Final residual = 0.019715, No Iterations 4
smoothSolver:  Solving for Uy, Initial residual = 1, Final residual = 0.0984566, No Iterations 2
Pressure gradient source: uncorrected Ubar = 1.21961, pressure gradient = -1.36451
GAMG:  Solving for p, Initial residual = 1, Final residual = 0.0859495, No Iterations 4
time step continuity errors : sum local = 0.0149048, global = 3.90315e-18, cumulative = -7.98653e-19
Pressure gradient source: uncorrected Ubar = 1.04843, pressure gradient = -0.0640557
smoothSolver:  Solving for omega, Initial residual = 0.0487158, Final residual = 0.00187493, No Iterations 1
smoothSolver:  Solving for k, Initial residual = 0.237838, Final residual = 0.0138723, No Iterations 3
ExecutionTime = 0.016399 s  ClockTime = 0 s

Time = 3s

smoothSolver:  Solving for Ux, Initial residual = 0.163981, Final residual = 0.0155499, No Iterations 4
smoothSolver:  Solving for Uy, Initial residual = 0.657716, Final residual = 0.0442718, No Iterations 2
Pressure gradient source: uncorrected Ubar = 0.941151, pressure gradient = 0.513175
GAMG:  Solving for p, Initial residual = 0.139493, Final residual = 0.0132375, No Iterations 4
time step continuity errors : sum local = 0.00387945, global = 7.83336e-18, cumulative = 7.03471e-18
Pressure gradient source: uncorrected Ubar = 0.991293, pressure gradient = 0.0213529
smoothSolver:  Solving for omega, Initial residual = 0.0097823, Final residual = 0.000860676, No Iterations 1
smoothSolver:  Solving for k, Initial residual = 0.132405, Final residual = 0.00717887, No Iterations 2
ExecutionTime = 0.018368 s  ClockTime = 0 s

Time = 4s

smoothSolver:  Solving for Ux, Initial residual = 0.0749932, Final residual = 0.00584478, No Iterations 4
smoothSolver:  Solving for Uy, Initial residual = 0.473236, Final residual = 0.0288078, No Iterations 3
Pressure gradient source: uncorrected Ubar = 1.00615, pressure gradient = -0.0408243
GAMG:  Solving for p, Initial residual = 0.0736928, Final residual = 0.00437715, No Iterations 8
time step continuity errors : sum local = 0.00175445, global = -2.81723e-18, cumulative = 4.21748e-18
Pressure gradient source: uncorrected Ubar = 1.00076, pressure gradient = 0.0136762
smoothSolver:  Solving for omega, Initial residual = 0.00786451, Final residual = 0.000486341, No Iterations 1
smoothSolver:  Solving for k, Initial residual = 0.0732999, Final residual = 0.00635931, No Iterations 2
ExecutionTime = 0.020464 s  ClockTime = 0 s

Time = 5s

smoothSolver:  Solving for Ux, Initial residual = 0.0432713, Final residual = 0.00428145, No Iterations 4
smoothSolver:  Solving for Uy, Initial residual = 0.568138, Final residual = 0.0277228, No Iterations 3
Pressure gradient source: uncorrected Ubar = 1.00218, pressure gradient = -0.00937251
GAMG:  Solving for p, Initial residual = 0.101872, Final residual = 0.00727891, No Iterations 5
time step continuity errors : sum local = 0.00161327, global = 2.50044e-18, cumulative = 6.71792e-18
Pressure gradient source: uncorrected Ubar = 1.0003, pressure gradient = 0.0104706
smoothSolver:  Solving for omega, Initial residual = 0.00334361, Final residual = 0.000305329, No Iterations 1
smoothSolver:  Solving for k, Initial residual = 0.0599096, Final residual = 0.00497504, No Iterations 3
ExecutionTime = 0.022638 s  ClockTime = 0 s

Time = 6s

smoothSolver:  Solving for Ux, Initial residual = 0.0290467, Final residual = 0.00222555, No Iterations 5
smoothSolver:  Solving for Uy, Initial residual = 0.527784, Final residual = 0.0241197, No Iterations 3
Pressure gradient source: uncorrected Ubar = 1.00193, pressure gradient = -0.0105831
GAMG:  Solving for p, Initial residual = 0.113007, Final residual = 0.00754712, No Iterations 8
time step continuity errors : sum local = 0.000978999, global = 1.61173e-17, cumulative = 2.28353e-17
Pressure gradient source: uncorrected Ubar = 1.00027, pressure gradient = 0.00755499
smoothSolver:  Solving for omega, Initial residual = 0.00211429, Final residual = 0.000199222, No Iterations 1
smoothSolver:  Solving for k, Initial residual = 0.0487073, Final residual = 0.00242615, No Iterations 4
ExecutionTime = 0.025342 s  ClockTime = 0 s

Time = 7s

smoothSolver:  Solving for Ux, Initial residual = 0.0214931, Final residual = 0.00182087, No Iterations 5
smoothSolver:  Solving for Uy, Initial residual = 0.616582, Final residual = 0.0225036, No Iterations 3
Pressure gradient source: uncorrected Ubar = 1.00106, pressure gradient = -0.00436222
GAMG:  Solving for p, Initial residual = 0.0874612, Final residual = 0.00605173, No Iterations 7
time step continuity errors : sum local = 0.000688936, global = -5.94268e-18, cumulative = 1.68926e-17
Pressure gradient source: uncorrected Ubar = 1.00014, pressure gradient = 0.00601091
smoothSolver:  Solving for omega, Initial residual = 0.00116323, Final residual = 8.22648e-05, No Iterations 2
smoothSolver:  Solving for k, Initial residual = 0.0477208, Final residual = 0.00432211, No Iterations 4
ExecutionTime = 0.027771 s  ClockTime = 0 s

Time = 8s

smoothSolver:  Solving for Ux, Initial residual = 0.0170099, Final residual = 0.00156785, No Iterations 5
smoothSolver:  Solving for Uy, Initial residual = 0.571493, Final residual = 0.0260263, No Iterations 3
Pressure gradient source: uncorrected Ubar = 1.00048, pressure gradient = 0.000255712
GAMG:  Solving for p, Initial residual = 0.0709787, Final residual = 0.00704397, No Iterations 3
time step continuity errors : sum local = 0.000774583, global = -4.85858e-18, cumulative = 1.2034e-17
Pressure gradient source: uncorrected Ubar = 1.00006, pressure gradient = 0.00533231
smoothSolver:  Solving for omega, Initial residual = 0.000721461, Final residual = 4.69095e-05, No Iterations 2
smoothSolver:  Solving for k, Initial residual = 0.0429686, Final residual = 0.00349681, No Iterations 4
ExecutionTime = 0.029712 s  ClockTime = 0 s

Time = 9s

smoothSolver:  Solving for Ux, Initial residual = 0.0141705, Final residual = 0.00094772, No Iterations 6
smoothSolver:  Solving for Uy, Initial residual = 0.597194, Final residual = 0.0263692, No Iterations 3
Pressure gradient source: uncorrected Ubar = 1.0005, pressure gradient = -0.000865439
GAMG:  Solving for p, Initial residual = 0.0591392, Final residual = 0.00588395, No Iterations 5
time step continuity errors : sum local = 0.000623035, global = 6.7085e-18, cumulative = 1.87425e-17
Pressure gradient source: uncorrected Ubar = 1.00006, pressure gradient = 0.00461693
smoothSolver:  Solving for omega, Initial residual = 0.000457562, Final residual = 2.53299e-05, No Iterations 3
smoothSolver:  Solving for k, Initial residual = 0.0422951, Final residual = 0.00245948, No Iterations 5
ExecutionTime = 0.031829 s  ClockTime = 0 s

Time = 10s

smoothSolver:  Solving for Ux, Initial residual = 0.012394, Final residual = 0.00086893, No Iterations 6
smoothSolver:  Solving for Uy, Initial residual = 0.60183, Final residual = 0.0254833, No Iterations 3
Pressure gradient source: uncorrected Ubar = 1.00044, pressure gradient = -0.00105873
GAMG:  Solving for p, Initial residual = 0.0586408, Final residual = 0.0038952, No Iterations 8
time step continuity errors : sum local = 0.000369194, global = 2.96075e-18, cumulative = 2.17033e-17
Pressure gradient source: uncorrected Ubar = 1.00005, pressure gradient = 0.00396076
smoothSolver:  Solving for omega, Initial residual = 0.000299402, Final residual = 1.58023e-05, No Iterations 3
smoothSolver:  Solving for k, Initial residual = 0.0345789, Final residual = 0.00325003, No Iterations 4
ExecutionTime = 0.033946 s  ClockTime = 0 s

Time = 11s

smoothSolver:  Solving for Ux, Initial residual = 0.010864, Final residual = 0.000794221, No Iterations 6
smoothSolver:  Solving for Uy, Initial residual = 0.565596, Final residual = 0.0252919, No Iterations 3
Pressure gradient source: uncorrected Ubar = 1.00034, pressure gradient = -0.000530457
GAMG:  Solving for p, Initial residual = 0.062824, Final residual = 0.00612292, No Iterations 6
time step continuity errors : sum local = 0.000437158, global = -1.01e-17, cumulative = 1.16032e-17
Pressure gradient source: uncorrected Ubar = 1.00004, pressure gradient = 0.0034275
smoothSolver:  Solving for omega, Initial residual = 0.000194667, Final residual = 1.93608e-05, No Iterations 3
smoothSolver:  Solving for k, Initial residual = 0.0288164, Final residual = 0.00165987, No Iterations 5
ExecutionTime = 0.036004 s  ClockTime = 0 s

Time = 12s

smoothSolver:  Solving for Ux, Initial residual = 0.009551, Final residual = 0.00073344, No Iterations 6
smoothSolver:  Solving for Uy, Initial residual = 0.514536, Final residual = 0.0240796, No Iterations 3
Pressure gradient source: uncorrected Ubar = 1.00027, pressure gradient = -0.000248763
GAMG:  Solving for p, Initial residual = 0.0674094, Final residual = 0.00569409, No Iterations 6
time step continuity errors : sum local = 0.00030783, global = -2.87139e-18, cumulative = 8.73184e-18
Pressure gradient source: uncorrected Ubar = 1.00003, pressure gradient = 0.00298652
smoothSolver:  Solving for omega, Initial residual = 0.000138526, Final residual = 1.07193e-05, No Iterations 4
smoothSolver:  Solving for k, Initial residual = 0.0237161, Final residual = 0.00146045, No Iterations 5
ExecutionTime = 0.038219 s  ClockTime = 0 s

Time = 13s

smoothSolver:  Solving for Ux, Initial residual = 0.00855666, Final residual = 0.000689939, No Iterations 6
smoothSolver:  Solving for Uy, Initial residual = 0.498594, Final residual = 0.023604, No Iterations 3
Pressure gradient source: uncorrected Ubar = 1.00022, pressure gradient = -0.000123082
GAMG:  Solving for p, Initial residual = 0.0707831, Final residual = 0.00628792, No Iterations 6
time step continuity errors : sum local = 0.000284434, global = -1.49247e-18, cumulative = 7.23937e-18
Pressure gradient source: uncorrected Ubar = 1.00003, pressure gradient = 0.00261198
smoothSolver:  Solving for omega, Initial residual = 0.000106319, Final residual = 6.14197e-06, No Iterations 4
smoothSolver:  Solving for k, Initial residual = 0.0206868, Final residual = 0.00124549, No Iterations 5
ExecutionTime = 0.040773 s  ClockTime = 0 s

Time = 14s

smoothSolver:  Solving for Ux, Initial residual = 0.00781713, Final residual = 0.000655276, No Iterations 6
smoothSolver:  Solving for Uy, Initial residual = 0.551827, Final residual = 0.0246561, No Iterations 3
Pressure gradient source: uncorrected Ubar = 1.00011, pressure gradient = 0.00102256
GAMG:  Solving for p, Initial residual = 0.0589751, Final residual = 0.00503156, No Iterations 6
time step continuity errors : sum local = 0.000243519, global = 3.02751e-18, cumulative = 1.02669e-17
Pressure gradient source: uncorrected Ubar = 1.00001, pressure gradient = 0.00242941
smoothSolver:  Solving for omega, Initial residual = 7.24029e-05, Final residual = 6.15066e-06, No Iterations 4
smoothSolver:  Solving for k, Initial residual = 0.0175581, Final residual = 0.00156617, No Iterations 4
ExecutionTime = 0.04296 s  ClockTime = 0 s

Time = 15s

smoothSolver:  Solving for Ux, Initial residual = 0.00721192, Final residual = 0.00062174, No Iterations 6
smoothSolver:  Solving for Uy, Initial residual = 0.614505, Final residual = 0.0245954, No Iterations 3
Pressure gradient source: uncorrected Ubar = 1.00012, pressure gradient = 0.000627052
GAMG:  Solving for p, Initial residual = 0.053785, Final residual = 0.00520882, No Iterations 5
time step continuity errors : sum local = 0.000214082, global = -1.96999e-18, cumulative = 8.29689e-18
Pressure gradient source: uncorrected Ubar = 1.00001, pressure gradient = 0.00221056
smoothSolver:  Solving for omega, Initial residual = 6.0973e-05, Final residual = 9.31214e-06, No Iterations 3
smoothSolver:  Solving for k, Initial residual = 0.0157701, Final residual = 0.000962481, No Iterations 5
ExecutionTime = 0.045319 s  ClockTime = 0 s

Time = 16s

smoothSolver:  Solving for Ux, Initial residual = 0.00678833, Final residual = 0.000600231, No Iterations 6
smoothSolver:  Solving for Uy, Initial residual = 0.724631, Final residual = 0.0694512, No Iterations 2
Pressure gradient source: uncorrected Ubar = 1.00007, pressure gradient = 0.00106375
GAMG:  Solving for p, Initial residual = 0.051397, Final residual = 0.00372685, No Iterations 7
time step continuity errors : sum local = 0.000138701, global = -8.11881e-18, cumulative = 1.78082e-19
Pressure gradient source: uncorrected Ubar = 1.00001, pressure gradient = 0.00207657
smoothSolver:  Solving for omega, Initial residual = 4.69195e-05, Final residual = 7.43996e-06, No Iterations 3
smoothSolver:  Solving for k, Initial residual = 0.0144145, Final residual = 0.000962705, No Iterations 5
ExecutionTime = 0.047531 s  ClockTime = 0 s

Time = 17s

smoothSolver:  Solving for Ux, Initial residual = 0.00656058, Final residual = 0.000586062, No Iterations 6
smoothSolver:  Solving for Uy, Initial residual = 0.772232, Final residual = 0.0666817, No Iterations 2
Pressure gradient source: uncorrected Ubar = 1.00004, pressure gradient = 0.00145148
GAMG:  Solving for p, Initial residual = 0.0502947, Final residual = 0.00362147, No Iterations 7
time step continuity errors : sum local = 0.000121312, global = -1.77276e-18, cumulative = -1.59468e-18
Pressure gradient source: uncorrected Ubar = 1, pressure gradient = 0.00200884
smoothSolver:  Solving for omega, Initial residual = 4.24727e-05, Final residual = 6.4327e-06, No Iterations 3
smoothSolver:  Solving for k, Initial residual = 0.0127263, Final residual = 0.000825544, No Iterations 5
ExecutionTime = 0.049545 s  ClockTime = 0 s

Time = 18s

smoothSolver:  Solving for Ux, Initial residual = 0.00652228, Final residual = 0.000572071, No Iterations 6
smoothSolver:  Solving for Uy, Initial residual = 0.729968, Final residual = 0.062533, No Iterations 2
Pressure gradient source: uncorrected Ubar = 1.00002, pressure gradient = 0.00163096
GAMG:  Solving for p, Initial residual = 0.0495381, Final residual = 0.00348531, No Iterations 7
time step continuity errors : sum local = 0.000103959, global = 2.93039e-18, cumulative = 1.33571e-18
Pressure gradient source: uncorrected Ubar = 1, pressure gradient = 0.00197291
smoothSolver:  Solving for omega, Initial residual = 3.55979e-05, Final residual = 6.28236e-06, No Iterations 3
smoothSolver:  Solving for k, Initial residual = 0.0109991, Final residual = 0.000622356, No Iterations 5
ExecutionTime = 0.051566 s  ClockTime = 0 s

Time = 19s

smoothSolver:  Solving for Ux, Initial residual = 0.00644555, Final residual = 0.000556, No Iterations 6
smoothSolver:  Solving for Uy, Initial residual = 0.680737, Final residual = 0.0517726, No Iterations 2
Pressure gradient source: uncorrected Ubar = 1.00002, pressure gradient = 0.0016173
GAMG:  Solving for p, Initial residual = 0.0483272, Final residual = 0.00460201, No Iterations 5
time step continuity errors : sum local = 0.000121548, global = -6.73296e-18, cumulative = -5.39725e-18
Pressure gradient source: uncorrected Ubar = 1, pressure gradient = 0.00193876
smoothSolver:  Solving for omega, Initial residual = 3.33769e-05, Final residual = 9.24784e-06, No Iterations 2
smoothSolver:  Solving for k, Initial residual = 0.0102017, Final residual = 0.000709194, No Iterations 5
ExecutionTime = 0.053518 s  ClockTime = 0 s

Time = 20s

smoothSolver:  Solving for Ux, Initial residual = 0.0063997, Final residual = 0.000545211, No Iterations 6
smoothSolver:  Solving for Uy, Initial residual = 0.647933, Final residual = 0.0385458, No Iterations 2
Pressure gradient source: uncorrected Ubar = 0.999994, pressure gradient = 0.00203282
GAMG:  Solving for p, Initial residual = 0.0478423, Final residual = 0.00435259, No Iterations 5
time step continuity errors : sum local = 0.000102575, global = 2.10403e-18, cumulative = -3.29322e-18
Pressure gradient source: uncorrected Ubar = 0.999998, pressure gradient = 0.00196466
smoothSolver:  Solving for omega, Initial residual = 3.09008e-05, Final residual = 9.91005e-06, No Iterations 2
smoothSolver:  Solving for k, Initial residual = 0.00921852, Final residual = 0.000658212, No Iterations 5
ExecutionTime = 0.055704 s  ClockTime = 0 s

Time = 21s

smoothSolver:  Solving for Ux, Initial residual = 0.00634082, Final residual = 0.000532869, No Iterations 6
smoothSolver:  Solving for Uy, Initial residual = 0.639619, Final residual = 0.0397959, No Iterations 2
Pressure gradient source: uncorrected Ubar = 0.999992, pressure gradient = 0.00210145
GAMG:  Solving for p, Initial residual = 0.0464523, Final residual = 0.00459425, No Iterations 4
time step continuity errors : sum local = 9.32141e-05, global = 6.24052e-18, cumulative = 2.9473e-18
Pressure gradient source: uncorrected Ubar = 0.999998, pressure gradient = 0.00199511
smoothSolver:  Solving for omega, Initial residual = 3.14951e-05, Final residual = 8.81844e-06, No Iterations 2
smoothSolver:  Solving for k, Initial residual = 0.00837374, Final residual = 0.000582848, No Iterations 5
ExecutionTime = 0.058333 s  ClockTime = 0 s

Time = 22s

smoothSolver:  Solving for Ux, Initial residual = 0.00627717, Final residual = 0.000522075, No Iterations 6
smoothSolver:  Solving for Uy, Initial residual = 0.582772, Final residual = 0.0416097, No Iterations 2
Pressure gradient source: uncorrected Ubar = 0.999982, pressure gradient = 0.00230609
GAMG:  Solving for p, Initial residual = 0.0451582, Final residual = 0.00402026, No Iterations 3
time step continuity errors : sum local = 7.42535e-05, global = 1.28253e-17, cumulative = 1.57726e-17
Pressure gradient source: uncorrected Ubar = 0.999997, pressure gradient = 0.00204766
smoothSolver:  Solving for omega, Initial residual = 3.09112e-05, Final residual = 8.29815e-06, No Iterations 2
smoothSolver:  Solving for k, Initial residual = 0.00794086, Final residual = 0.000586883, No Iterations 5
ExecutionTime = 0.060476 s  ClockTime = 0 s

Time = 23s

smoothSolver:  Solving for Ux, Initial residual = 0.00620461, Final residual = 0.000510624, No Iterations 6
smoothSolver:  Solving for Uy, Initial residual = 0.551343, Final residual = 0.0402912, No Iterations 2
Pressure gradient source: uncorrected Ubar = 0.999978, pressure gradient = 0.0024324
GAMG:  Solving for p, Initial residual = 0.0440816, Final residual = 0.00340026, No Iterations 3
time step continuity errors : sum local = 5.62236e-05, global = 1.44186e-18, cumulative = 1.72145e-17
Pressure gradient source: uncorrected Ubar = 0.999997, pressure gradient = 0.00210937
smoothSolver:  Solving for omega, Initial residual = 3.11705e-05, Final residual = 8.23578e-06, No Iterations 2
smoothSolver:  Solving for k, Initial residual = 0.00710473, Final residual = 0.000418166, No Iterations 5
ExecutionTime = 0.062453 s  ClockTime = 0 s

Time = 24s

smoothSolver:  Solving for Ux, Initial residual = 0.00612374, Final residual = 0.000498732, No Iterations 6
smoothSolver:  Solving for Uy, Initial residual = 0.500875, Final residual = 0.0346453, No Iterations 2
Pressure gradient source: uncorrected Ubar = 0.999976, pressure gradient = 0.00254771
GAMG:  Solving for p, Initial residual = 0.0430859, Final residual = 0.00281177, No Iterations 3
time step continuity errors : sum local = 4.13476e-05, global = -3.57768e-18, cumulative = 1.36368e-17
Pressure gradient source: uncorrected Ubar = 0.999996, pressure gradient = 0.00217714
smoothSolver:  Solving for omega, Initial residual = 3.16542e-05, Final residual = 8.9354e-06, No Iterations 2
smoothSolver:  Solving for k, Initial residual = 0.00665995, Final residual = 0.000442057, No Iterations 5
ExecutionTime = 0.064397 s  ClockTime = 0 s

Time = 25s

smoothSolver:  Solving for Ux, Initial residual = 0.00602933, Final residual = 0.000486218, No Iterations 6
smoothSolver:  Solving for Uy, Initial residual = 0.479151, Final residual = 0.0312718, No Iterations 2
Pressure gradient source: uncorrected Ubar = 0.999973, pressure gradient = 0.00267112
GAMG:  Solving for p, Initial residual = 0.0424476, Final residual = 0.00392852, No Iterations 2
time step continuity errors : sum local = 5.2659e-05, global = 3.7906e-18, cumulative = 1.74274e-17
Pressure gradient source: uncorrected Ubar = 0.999996, pressure gradient = 0.00225114
smoothSolver:  Solving for omega, Initial residual = 3.17977e-05, Final residual = 8.69823e-06, No Iterations 2
smoothSolver:  Solving for k, Initial residual = 0.0063488, Final residual = 0.000456224, No Iterations 5
ExecutionTime = 0.066254 s  ClockTime = 0 s

Time = 26s

smoothSolver:  Solving for Ux, Initial residual = 0.00593335, Final residual = 0.000474727, No Iterations 6
smoothSolver:  Solving for Uy, Initial residual = 0.468554, Final residual = 0.0307737, No Iterations 2
Pressure gradient source: uncorrected Ubar = 0.99997, pressure gradient = 0.00282532
GAMG:  Solving for p, Initial residual = 0.0422694, Final residual = 0.00384137, No Iterations 2
time step continuity errors : sum local = 4.60883e-05, global = 1.52108e-17, cumulative = 3.26382e-17
Pressure gradient source: uncorrected Ubar = 0.999996, pressure gradient = 0.00233453
smoothSolver:  Solving for omega, Initial residual = 3.25703e-05, Final residual = 8.85544e-06, No Iterations 2
smoothSolver:  Solving for k, Initial residual = 0.00595525, Final residual = 0.000416013, No Iterations 5
ExecutionTime = 0.068115 s  ClockTime = 0 s

Time = 27s

smoothSolver:  Solving for Ux, Initial residual = 0.00582962, Final residual = 0.000462995, No Iterations 6
smoothSolver:  Solving for Uy, Initial residual = 0.461065, Final residual = 0.0302324, No Iterations 2
Pressure gradient source: uncorrected Ubar = 0.999969, pressure gradient = 0.00293805
GAMG:  Solving for p, Initial residual = 0.0424931, Final residual = 0.00389807, No Iterations 2
time step continuity errors : sum local = 4.15084e-05, global = -2.64952e-18, cumulative = 2.99887e-17
Pressure gradient source: uncorrected Ubar = 0.999996, pressure gradient = 0.0024206
smoothSolver:  Solving for omega, Initial residual = 3.24338e-05, Final residual = 9.44254e-06, No Iterations 2
smoothSolver:  Solving for k, Initial residual = 0.00575625, Final residual = 0.000457918, No Iterations 5
ExecutionTime = 0.069973 s  ClockTime = 0 s

Time = 28s

smoothSolver:  Solving for Ux, Initial residual = 0.00571953, Final residual = 0.000450263, No Iterations 6
smoothSolver:  Solving for Uy, Initial residual = 0.455018, Final residual = 0.0279477, No Iterations 2
Pressure gradient source: uncorrected Ubar = 0.999974, pressure gradient = 0.00293565
GAMG:  Solving for p, Initial residual = 0.0430066, Final residual = 0.00405092, No Iterations 2
time step continuity errors : sum local = 3.80834e-05, global = -1.27947e-18, cumulative = 2.87092e-17
Pressure gradient source: uncorrected Ubar = 0.999996, pressure gradient = 0.0024927
smoothSolver:  Solving for omega, Initial residual = 3.25939e-05, Final residual = 9.03179e-06, No Iterations 2
smoothSolver:  Solving for k, Initial residual = 0.00527978, Final residual = 0.000350113, No Iterations 5
ExecutionTime = 0.072076 s  ClockTime = 0 s

Time = 29s

smoothSolver:  Solving for Ux, Initial residual = 0.00562314, Final residual = 0.000439475, No Iterations 6
smoothSolver:  Solving for Uy, Initial residual = 0.453405, Final residual = 0.0294749, No Iterations 2
Pressure gradient source: uncorrected Ubar = 0.999966, pressure gradient = 0.0031694
GAMG:  Solving for p, Initial residual = 0.0441181, Final residual = 0.00413384, No Iterations 2
time step continuity errors : sum local = 3.40988e-05, global = -1.36453e-17, cumulative = 1.5064e-17
Pressure gradient source: uncorrected Ubar = 0.999995, pressure gradient = 0.00258501
smoothSolver:  Solving for omega, Initial residual = 3.23e-05, Final residual = 8.51284e-06, No Iterations 2
smoothSolver:  Solving for k, Initial residual = 0.00486046, Final residual = 0.000342614, No Iterations 5
ExecutionTime = 0.074594 s  ClockTime = 0 s

Time = 30s

smoothSolver:  Solving for Ux, Initial residual = 0.00552301, Final residual = 0.000428725, No Iterations 6
smoothSolver:  Solving for Uy, Initial residual = 0.46198, Final residual = 0.0326141, No Iterations 2
Pressure gradient source: uncorrected Ubar = 0.999967, pressure gradient = 0.00325827
GAMG:  Solving for p, Initial residual = 0.0448356, Final residual = 0.00423868, No Iterations 2
time step continuity errors : sum local = 3.06746e-05, global = 4.5202e-18, cumulative = 1.95842e-17
Pressure gradient source: uncorrected Ubar = 0.999996, pressure gradient = 0.00267508
smoothSolver:  Solving for omega, Initial residual = 3.23443e-05, Final residual = 8.66768e-06, No Iterations 2
smoothSolver:  Solving for k, Initial residual = 0.00447909, Final residual = 0.00029371, No Iterations 5
ExecutionTime = 0.076713 s  ClockTime = 0 s

Time = 31s

smoothSolver:  Solving for Ux, Initial residual = 0.00542365, Final residual = 0.000418163, No Iterations 6
smoothSolver:  Solving for Uy, Initial residual = 0.477838, Final residual = 0.0326091, No Iterations 2
Pressure gradient source: uncorrected Ubar = 0.999968, pressure gradient = 0.00333385
GAMG:  Solving for p, Initial residual = 0.0463921, Final residual = 0.00440285, No Iterations 2
time step continuity errors : sum local = 2.7937e-05, global = 8.58118e-18, cumulative = 2.81653e-17
Pressure gradient source: uncorrected Ubar = 0.999996, pressure gradient = 0.0027613
smoothSolver:  Solving for omega, Initial residual = 3.20571e-05, Final residual = 8.53767e-06, No Iterations 2
smoothSolver:  Solving for k, Initial residual = 0.0042078, Final residual = 0.000294525, No Iterations 5
ExecutionTime = 0.078684 s  ClockTime = 0 s

Time = 32s

smoothSolver:  Solving for Ux, Initial residual = 0.00531778, Final residual = 0.000407062, No Iterations 6
smoothSolver:  Solving for Uy, Initial residual = 0.467393, Final residual = 0.0296002, No Iterations 2
Pressure gradient source: uncorrected Ubar = 0.999972, pressure gradient = 0.0033357
GAMG:  Solving for p, Initial residual = 0.0474498, Final residual = 0.00448201, No Iterations 2
time step continuity errors : sum local = 2.48298e-05, global = 3.97184e-18, cumulative = 3.21372e-17
Pressure gradient source: uncorrected Ubar = 0.999997, pressure gradient = 0.00283389
smoothSolver:  Solving for omega, Initial residual = 3.18518e-05, Final residual = 9.08194e-06, No Iterations 2
smoothSolver:  Solving for k, Initial residual = 0.00394307, Final residual = 0.00026379, No Iterations 5
ExecutionTime = 0.08061 s  ClockTime = 0 s

Time = 33s

smoothSolver:  Solving for Ux, Initial residual = 0.00522301, Final residual = 0.000397434, No Iterations 6
smoothSolver:  Solving for Uy, Initial residual = 0.454741, Final residual = 0.0264525, No Iterations 2
Pressure gradient source: uncorrected Ubar = 0.999967, pressure gradient = 0.00352483
GAMG:  Solving for p, Initial residual = 0.0494374, Final residual = 0.0047206, No Iterations 2
time step continuity errors : sum local = 2.29655e-05, global = -4.3726e-18, cumulative = 2.77646e-17
Pressure gradient source: uncorrected Ubar = 0.999996, pressure gradient = 0.00292036
smoothSolver:  Solving for omega, Initial residual = 3.12373e-05, Final residual = 9.13426e-06, No Iterations 2
smoothSolver:  Solving for k, Initial residual = 0.00368615, Final residual = 0.000265755, No Iterations 5
ExecutionTime = 0.082509 s  ClockTime = 0 s

Time = 34s

smoothSolver:  Solving for Ux, Initial residual = 0.00513063, Final residual = 0.00038847, No Iterations 6
smoothSolver:  Solving for Uy, Initial residual = 0.45384, Final residual = 0.0259771, No Iterations 2
Pressure gradient source: uncorrected Ubar = 0.999965, pressure gradient = 0.00365868
GAMG:  Solving for p, Initial residual = 0.0502669, Final residual = 0.00397681, No Iterations 4
time step continuity errors : sum local = 1.69873e-05, global = 3.43048e-18, cumulative = 3.11951e-17
Pressure gradient source: uncorrected Ubar = 0.999996, pressure gradient = 0.00301116
smoothSolver:  Solving for omega, Initial residual = 3.06202e-05, Final residual = 8.78396e-06, No Iterations 2
smoothSolver:  Solving for k, Initial residual = 0.00344227, Final residual = 0.000261002, No Iterations 5
ExecutionTime = 0.084496 s  ClockTime = 0 s

Time = 35s

smoothSolver:  Solving for Ux, Initial residual = 0.00503213, Final residual = 0.000378642, No Iterations 6
smoothSolver:  Solving for Uy, Initial residual = 0.44441, Final residual = 0.0244978, No Iterations 2
Pressure gradient source: uncorrected Ubar = 0.999974, pressure gradient = 0.00357264
GAMG:  Solving for p, Initial residual = 0.0519388, Final residual = 0.00404454, No Iterations 4
time step continuity errors : sum local = 1.53623e-05, global = 3.90441e-18, cumulative = 3.50995e-17
Pressure gradient source: uncorrected Ubar = 0.999997, pressure gradient = 0.0030754
smoothSolver:  Solving for omega, Initial residual = 2.99471e-05, Final residual = 8.42125e-06, No Iterations 2
smoothSolver:  Solving for k, Initial residual = 0.00307862, Final residual = 0.000209056, No Iterations 5
ExecutionTime = 0.086414 s  ClockTime = 0 s

Time = 36s

smoothSolver:  Solving for Ux, Initial residual = 0.0049458, Final residual = 0.000370041, No Iterations 6
smoothSolver:  Solving for Uy, Initial residual = 0.407603, Final residual = 0.0196507, No Iterations 2
Pressure gradient source: uncorrected Ubar = 0.999972, pressure gradient = 0.00369512
GAMG:  Solving for p, Initial residual = 0.0495338, Final residual = 0.00479996, No Iterations 3
time step continuity errors : sum local = 1.68197e-05, global = -5.65818e-18, cumulative = 2.94413e-17
Pressure gradient source: uncorrected Ubar = 0.999997, pressure gradient = 0.00314544
smoothSolver:  Solving for omega, Initial residual = 2.93993e-05, Final residual = 8.51276e-06, No Iterations 2
smoothSolver:  Solving for k, Initial residual = 0.00286063, Final residual = 0.000207217, No Iterations 5
ExecutionTime = 0.088522 s  ClockTime = 0 s

Time = 37s

smoothSolver:  Solving for Ux, Initial residual = 0.00486145, Final residual = 0.000361716, No Iterations 6
smoothSolver:  Solving for Uy, Initial residual = 0.371339, Final residual = 0.0165154, No Iterations 2
Pressure gradient source: uncorrected Ubar = 0.999974, pressure gradient = 0.00372858
GAMG:  Solving for p, Initial residual = 0.048422, Final residual = 0.00412468, No Iterations 4
time step continuity errors : sum local = 1.2993e-05, global = -2.45891e-18, cumulative = 2.69824e-17
Pressure gradient source: uncorrected Ubar = 0.999997, pressure gradient = 0.00320824
smoothSolver:  Solving for omega, Initial residual = 2.87241e-05, Final residual = 8.46127e-06, No Iterations 2
smoothSolver:  Solving for k, Initial residual = 0.00275591, Final residual = 0.000228223, No Iterations 5
ExecutionTime = 0.091093 s  ClockTime = 0 s

Time = 38s

smoothSolver:  Solving for Ux, Initial residual = 0.00477866, Final residual = 0.00035365, No Iterations 6
smoothSolver:  Solving for Uy, Initial residual = 0.35057, Final residual = 0.0122286, No Iterations 2
Pressure gradient source: uncorrected Ubar = 0.999976, pressure gradient = 0.00375825
GAMG:  Solving for p, Initial residual = 0.0473648, Final residual = 0.00442574, No Iterations 3
time step continuity errors : sum local = 1.41337e-05, global = 7.97482e-19, cumulative = 2.77799e-17
Pressure gradient source: uncorrected Ubar = 0.999997, pressure gradient = 0.00326453
smoothSolver:  Solving for omega, Initial residual = 2.78877e-05, Final residual = 7.79807e-06, No Iterations 2
smoothSolver:  Solving for k, Initial residual = 0.00252391, Final residual = 0.000210766, No Iterations 5
ExecutionTime = 0.093296 s  ClockTime = 0 s

Time = 39s

smoothSolver:  Solving for Ux, Initial residual = 0.00470821, Final residual = 0.000347011, No Iterations 6
smoothSolver:  Solving for Uy, Initial residual = 0.330821, Final residual = 0.0129904, No Iterations 2
Pressure gradient source: uncorrected Ubar = 0.999971, pressure gradient = 0.00391589
GAMG:  Solving for p, Initial residual = 0.0464567, Final residual = 0.00345156, No Iterations 4
time step continuity errors : sum local = 9.02005e-06, global = -2.44994e-18, cumulative = 2.53299e-17
Pressure gradient source: uncorrected Ubar = 0.999997, pressure gradient = 0.00333286
smoothSolver:  Solving for omega, Initial residual = 2.75119e-05, Final residual = 7.67049e-06, No Iterations 2
smoothSolver:  Solving for k, Initial residual = 0.0022924, Final residual = 0.000161384, No Iterations 5
ExecutionTime = 0.095344 s  ClockTime = 0 s

Time = 40s

smoothSolver:  Solving for Ux, Initial residual = 0.00463884, Final residual = 0.000340498, No Iterations 6
smoothSolver:  Solving for Uy, Initial residual = 0.325644, Final residual = 0.014219, No Iterations 2
Pressure gradient source: uncorrected Ubar = 0.999974, pressure gradient = 0.00393794
GAMG:  Solving for p, Initial residual = 0.0445955, Final residual = 0.00357223, No Iterations 3
time step continuity errors : sum local = 1.02571e-05, global = -1.14914e-17, cumulative = 1.38385e-17
Pressure gradient source: uncorrected Ubar = 0.999997, pressure gradient = 0.00339303
smoothSolver:  Solving for omega, Initial residual = 2.6625e-05, Final residual = 8.12102e-06, No Iterations 2
smoothSolver:  Solving for k, Initial residual = 0.00222603, Final residual = 0.000172184, No Iterations 5
ExecutionTime = 0.097311 s  ClockTime = 0 s

Time = 41s

smoothSolver:  Solving for Ux, Initial residual = 0.00456711, Final residual = 0.000333616, No Iterations 6
smoothSolver:  Solving for Uy, Initial residual = 0.299158, Final residual = 0.0131586, No Iterations 2
Pressure gradient source: uncorrected Ubar = 0.999979, pressure gradient = 0.00388226
GAMG:  Solving for p, Initial residual = 0.0448587, Final residual = 0.00357827, No Iterations 3
time step continuity errors : sum local = 8.953e-06, global = 4.81525e-19, cumulative = 1.43201e-17
Pressure gradient source: uncorrected Ubar = 0.999998, pressure gradient = 0.00343561
smoothSolver:  Solving for omega, Initial residual = 2.63969e-05, Final residual = 7.79004e-06, No Iterations 2
smoothSolver:  Solving for k, Initial residual = 0.00225762, Final residual = 0.000170619, No Iterations 5
ExecutionTime = 0.09925 s  ClockTime = 0 s

Time = 42s

smoothSolver:  Solving for Ux, Initial residual = 0.00449944, Final residual = 0.000327271, No Iterations 6
smoothSolver:  Solving for Uy, Initial residual = 0.275315, Final residual = 0.0115989, No Iterations 2
Pressure gradient source: uncorrected Ubar = 0.999979, pressure gradient = 0.00393597
GAMG:  Solving for p, Initial residual = 0.0435301, Final residual = 0.00369909, No Iterations 3
time step continuity errors : sum local = 8.20977e-06, global = 2.90722e-18, cumulative = 1.72273e-17
Pressure gradient source: uncorrected Ubar = 0.999998, pressure gradient = 0.0034782
smoothSolver:  Solving for omega, Initial residual = 2.54501e-05, Final residual = 7.23561e-06, No Iterations 2
smoothSolver:  Solving for k, Initial residual = 0.0022097, Final residual = 0.000179446, No Iterations 5
ExecutionTime = 0.101195 s  ClockTime = 0 s

Time = 43s

smoothSolver:  Solving for Ux, Initial residual = 0.00443845, Final residual = 0.000321684, No Iterations 6
smoothSolver:  Solving for Uy, Initial residual = 0.274401, Final residual = 0.0124129, No Iterations 2
Pressure gradient source: uncorrected Ubar = 0.999978, pressure gradient = 0.00398964
GAMG:  Solving for p, Initial residual = 0.0446202, Final residual = 0.0037441, No Iterations 3
time step continuity errors : sum local = 7.44134e-06, global = 1.42312e-18, cumulative = 1.86504e-17
Pressure gradient source: uncorrected Ubar = 0.999998, pressure gradient = 0.00352088
smoothSolver:  Solving for omega, Initial residual = 2.5021e-05, Final residual = 7.54221e-06, No Iterations 2
smoothSolver:  Solving for k, Initial residual = 0.00217395, Final residual = 0.000185003, No Iterations 5
ExecutionTime = 0.103124 s  ClockTime = 0 s

Time = 44s

smoothSolver:  Solving for Ux, Initial residual = 0.00438254, Final residual = 0.000316531, No Iterations 6
smoothSolver:  Solving for Uy, Initial residual = 0.276621, Final residual = 0.0165116, No Iterations 2
Pressure gradient source: uncorrected Ubar = 0.999978, pressure gradient = 0.00404552
GAMG:  Solving for p, Initial residual = 0.045057, Final residual = 0.00442582, No Iterations 3
time step continuity errors : sum local = 8.10932e-06, global = -7.373e-18, cumulative = 1.12774e-17
Pressure gradient source: uncorrected Ubar = 0.999998, pressure gradient = 0.00356408
smoothSolver:  Solving for omega, Initial residual = 2.4323e-05, Final residual = 7.37417e-06, No Iterations 2
smoothSolver:  Solving for k, Initial residual = 0.00219792, Final residual = 0.000184484, No Iterations 5
ExecutionTime = 0.105247 s  ClockTime = 0 s

Time = 45s

smoothSolver:  Solving for Ux, Initial residual = 0.00432661, Final residual = 0.000311399, No Iterations 6
smoothSolver:  Solving for Uy, Initial residual = 0.264067, Final residual = 0.017353, No Iterations 2
Pressure gradient source: uncorrected Ubar = 0.99998, pressure gradient = 0.0040573
GAMG:  Solving for p, Initial residual = 0.0451021, Final residual = 0.00314194, No Iterations 4
time step continuity errors : sum local = 4.26586e-06, global = -5.84089e-18, cumulative = 5.43652e-18
Pressure gradient source: uncorrected Ubar = 0.999998, pressure gradient = 0.0036018
smoothSolver:  Solving for omega, Initial residual = 2.37965e-05, Final residual = 6.83451e-06, No Iterations 2
smoothSolver:  Solving for k, Initial residual = 0.0021681, Final residual = 0.00015665, No Iterations 5
ExecutionTime = 0.107833 s  ClockTime = 0 s

Time = 46s

smoothSolver:  Solving for Ux, Initial residual = 0.00427671, Final residual = 0.000306871, No Iterations 6
smoothSolver:  Solving for Uy, Initial residual = 0.247964, Final residual = 0.0152952, No Iterations 2
Pressure gradient source: uncorrected Ubar = 0.999979, pressure gradient = 0.0041076
GAMG:  Solving for p, Initial residual = 0.0454759, Final residual = 0.00336263, No Iterations 4
time step continuity errors : sum local = 4.07466e-06, global = -1.08989e-17, cumulative = -5.46243e-18
Pressure gradient source: uncorrected Ubar = 0.999998, pressure gradient = 0.00364031
smoothSolver:  Solving for omega, Initial residual = 2.3138e-05, Final residual = 6.54844e-06, No Iterations 2
smoothSolver:  Solving for k, Initial residual = 0.00225196, Final residual = 0.000194874, No Iterations 5
ExecutionTime = 0.110018 s  ClockTime = 0 s

Time = 47s

smoothSolver:  Solving for Ux, Initial residual = 0.00422456, Final residual = 0.000301895, No Iterations 6
smoothSolver:  Solving for Uy, Initial residual = 0.227677, Final residual = 0.0184683, No Iterations 2
Pressure gradient source: uncorrected Ubar = 0.999983, pressure gradient = 0.00406668
GAMG:  Solving for p, Initial residual = 0.046845, Final residual = 0.00355063, No Iterations 4
time step continuity errors : sum local = 3.84225e-06, global = 6.52546e-19, cumulative = -4.80988e-18
Pressure gradient source: uncorrected Ubar = 0.999999, pressure gradient = 0.00366679
smoothSolver:  Solving for omega, Initial residual = 2.28806e-05, Final residual = 7.27323e-06, No Iterations 2
smoothSolver:  Solving for k, Initial residual = 0.00226159, Final residual = 0.000195323, No Iterations 5
ExecutionTime = 0.112059 s  ClockTime = 0 s

Time = 48s

smoothSolver:  Solving for Ux, Initial residual = 0.00417154, Final residual = 0.000297, No Iterations 6
smoothSolver:  Solving for Uy, Initial residual = 0.204349, Final residual = 0.0119938, No Iterations 2
Pressure gradient source: uncorrected Ubar = 0.999984, pressure gradient = 0.0040737
GAMG:  Solving for p, Initial residual = 0.0475677, Final residual = 0.00376822, No Iterations 4
time step continuity errors : sum local = 3.61804e-06, global = 1.16149e-18, cumulative = -3.64839e-18
Pressure gradient source: uncorrected Ubar = 0.999999, pressure gradient = 0.00368968
smoothSolver:  Solving for omega, Initial residual = 2.20755e-05, Final residual = 6.84123e-06, No Iterations 2
smoothSolver:  Solving for k, Initial residual = 0.00226714, Final residual = 0.00018733, No Iterations 5
ExecutionTime = 0.114017 s  ClockTime = 0 s

Time = 49s

smoothSolver:  Solving for Ux, Initial residual = 0.00412665, Final residual = 0.000293262, No Iterations 6
smoothSolver:  Solving for Uy, Initial residual = 0.192415, Final residual = 0.011927, No Iterations 2
Pressure gradient source: uncorrected Ubar = 0.99998, pressure gradient = 0.00417573
GAMG:  Solving for p, Initial residual = 0.048032, Final residual = 0.00407486, No Iterations 6
time step continuity errors : sum local = 3.71008e-06, global = 1.03216e-17, cumulative = 6.67324e-18
Pressure gradient source: uncorrected Ubar = 0.999999, pressure gradient = 0.00372288
smoothSolver:  Solving for omega, Initial residual = 2.16536e-05, Final residual = 6.31731e-06, No Iterations 2
smoothSolver:  Solving for k, Initial residual = 0.0023566, Final residual = 0.00015294, No Iterations 6
ExecutionTime = 0.116004 s  ClockTime = 0 s

Time = 50s

smoothSolver:  Solving for Ux, Initial residual = 0.00407741, Final residual = 0.000288707, No Iterations 6
smoothSolver:  Solving for Uy, Initial residual = 0.177146, Final residual = 0.010078, No Iterations 2
Pressure gradient source: uncorrected Ubar = 0.999985, pressure gradient = 0.00409415
GAMG:  Solving for p, Initial residual = 0.0503082, Final residual = 0.00477748, No Iterations 4
time step continuity errors : sum local = 3.67569e-06, global = 2.6864e-18, cumulative = 9.35964e-18
Pressure gradient source: uncorrected Ubar = 0.999999, pressure gradient = 0.00373944
smoothSolver:  Solving for omega, Initial residual = 2.0906e-05, Final residual = 5.80259e-06, No Iterations 2
smoothSolver:  Solving for k, Initial residual = 0.00234042, Final residual = 0.000202684, No Iterations 5
ExecutionTime = 0.117917 s  ClockTime = 0 s

Time = 51s

smoothSolver:  Solving for Ux, Initial residual = 0.00403435, Final residual = 0.000284774, No Iterations 6
smoothSolver:  Solving for Uy, Initial residual = 0.164294, Final residual = 0.00888761, No Iterations 2
Pressure gradient source: uncorrected Ubar = 0.999983, pressure gradient = 0.00416226
GAMG:  Solving for p, Initial residual = 0.0515592, Final residual = 0.00480925, No Iterations 6
time step continuity errors : sum local = 3.31845e-06, global = -8.88617e-18, cumulative = 4.73472e-19
Pressure gradient source: uncorrected Ubar = 0.999999, pressure gradient = 0.00376248
smoothSolver:  Solving for omega, Initial residual = 2.07765e-05, Final residual = 6.73874e-06, No Iterations 2
smoothSolver:  Solving for k, Initial residual = 0.00240606, Final residual = 0.000156241, No Iterations 6
ExecutionTime = 0.119924 s  ClockTime = 0 s

Time = 52s

smoothSolver:  Solving for Ux, Initial residual = 0.0039887, Final residual = 0.00028057, No Iterations 6
smoothSolver:  Solving for Uy, Initial residual = 0.154783, Final residual = 0.00979257, No Iterations 2
Pressure gradient source: uncorrected Ubar = 0.999985, pressure gradient = 0.0041484
GAMG:  Solving for p, Initial residual = 0.0529709, Final residual = 0.0051318, No Iterations 6
time step continuity errors : sum local = 3.16251e-06, global = 9.98604e-18, cumulative = 1.04595e-17
Pressure gradient source: uncorrected Ubar = 0.999999, pressure gradient = 0.00377969
smoothSolver:  Solving for omega, Initial residual = 2.01281e-05, Final residual = 6.59051e-06, No Iterations 2
smoothSolver:  Solving for k, Initial residual = 0.00245495, Final residual = 0.000159997, No Iterations 6
ExecutionTime = 0.122144 s  ClockTime = 0 s

Time = 53s

smoothSolver:  Solving for Ux, Initial residual = 0.00394442, Final residual = 0.000276616, No Iterations 6
smoothSolver:  Solving for Uy, Initial residual = 0.143697, Final residual = 0.009146, No Iterations 2
Pressure gradient source: uncorrected Ubar = 0.999985, pressure gradient = 0.00417636
GAMG:  Solving for p, Initial residual = 0.0529246, Final residual = 0.00408806, No Iterations 8
time step continuity errors : sum local = 2.22483e-06, global = -2.13419e-18, cumulative = 8.32532e-18
Pressure gradient source: uncorrected Ubar = 0.999999, pressure gradient = 0.00379786
smoothSolver:  Solving for omega, Initial residual = 1.95487e-05, Final residual = 9.97831e-06, No Iterations 1
smoothSolver:  Solving for k, Initial residual = 0.00250618, Final residual = 0.000222204, No Iterations 5
ExecutionTime = 0.124867 s  ClockTime = 0 s

Time = 54s

smoothSolver:  Solving for Ux, Initial residual = 0.00390809, Final residual = 0.000273541, No Iterations 6
smoothSolver:  Solving for Uy, Initial residual = 0.141927, Final residual = 0.00958484, No Iterations 2
Pressure gradient source: uncorrected Ubar = 0.999983, pressure gradient = 0.00422846
GAMG:  Solving for p, Initial residual = 0.0496049, Final residual = 0.00467649, No Iterations 6
time step continuity errors : sum local = 2.26675e-06, global = -3.41315e-18, cumulative = 4.91217e-18
Pressure gradient source: uncorrected Ubar = 0.999999, pressure gradient = 0.0038207
smoothSolver:  Solving for omega, Initial residual = 2.05704e-05, Final residual = 6.08537e-06, No Iterations 2
smoothSolver:  Solving for k, Initial residual = 0.00252117, Final residual = 0.000224344, No Iterations 5
ExecutionTime = 0.127103 s  ClockTime = 0 s

Time = 55s

smoothSolver:  Solving for Ux, Initial residual = 0.003864, Final residual = 0.00026987, No Iterations 6
smoothSolver:  Solving for Uy, Initial residual = 0.126788, Final residual = 0.0107576, No Iterations 2
Pressure gradient source: uncorrected Ubar = 0.999985, pressure gradient = 0.00419673
GAMG:  Solving for p, Initial residual = 0.0532565, Final residual = 0.00521204, No Iterations 6
time step continuity errors : sum local = 2.24282e-06, global = 1.25129e-19, cumulative = 5.0373e-18
Pressure gradient source: uncorrected Ubar = 0.999999, pressure gradient = 0.00383546
smoothSolver:  Solving for omega, Initial residual = 1.93103e-05, Final residual = 6.61268e-06, No Iterations 2
smoothSolver:  Solving for k, Initial residual = 0.00254585, Final residual = 0.000235703, No Iterations 5
ExecutionTime = 0.129221 s  ClockTime = 0 s

Time = 56s

smoothSolver:  Solving for Ux, Initial residual = 0.0038265, Final residual = 0.000266545, No Iterations 6
smoothSolver:  Solving for Uy, Initial residual = 0.124451, Final residual = 0.00948253, No Iterations 2
Pressure gradient source: uncorrected Ubar = 0.999985, pressure gradient = 0.00423357
GAMG:  Solving for p, Initial residual = 0.055257, Final residual = 0.00506841, No Iterations 6
time step continuity errors : sum local = 2.01154e-06, global = -7.0289e-18, cumulative = -1.99161e-18
Pressure gradient source: uncorrected Ubar = 0.999999, pressure gradient = 0.00385278
smoothSolver:  Solving for omega, Initial residual = 1.88445e-05, Final residual = 6.1897e-06, No Iterations 2
smoothSolver:  Solving for k, Initial residual = 0.00253356, Final residual = 0.000209344, No Iterations 5
ExecutionTime = 0.131319 s  ClockTime = 0 s

Time = 57s

smoothSolver:  Solving for Ux, Initial residual = 0.00379037, Final residual = 0.000263455, No Iterations 6
smoothSolver:  Solving for Uy, Initial residual = 0.118993, Final residual = 0.0109179, No Iterations 2
Pressure gradient source: uncorrected Ubar = 0.999985, pressure gradient = 0.00425659
GAMG:  Solving for p, Initial residual = 0.0551121, Final residual = 0.0044564, No Iterations 7
time step continuity errors : sum local = 1.57539e-06, global = -4.34436e-18, cumulative = -6.33597e-18
Pressure gradient source: uncorrected Ubar = 0.999999, pressure gradient = 0.00387059
smoothSolver:  Solving for omega, Initial residual = 1.81448e-05, Final residual = 9.53403e-06, No Iterations 1
smoothSolver:  Solving for k, Initial residual = 0.00272558, Final residual = 0.000175041, No Iterations 6
ExecutionTime = 0.13338 s  ClockTime = 0 s

Time = 58s

smoothSolver:  Solving for Ux, Initial residual = 0.003752, Final residual = 0.000260105, No Iterations 6
smoothSolver:  Solving for Uy, Initial residual = 0.117771, Final residual = 0.0103362, No Iterations 2
Pressure gradient source: uncorrected Ubar = 0.999986, pressure gradient = 0.00423093
GAMG:  Solving for p, Initial residual = 0.0539848, Final residual = 0.00432523, No Iterations 6
time step continuity errors : sum local = 1.3898e-06, global = 6.62077e-18, cumulative = 2.84794e-19
Pressure gradient source: uncorrected Ubar = 1, pressure gradient = 0.00388248
smoothSolver:  Solving for omega, Initial residual = 1.91604e-05, Final residual = 5.97235e-06, No Iterations 2
smoothSolver:  Solving for k, Initial residual = 0.00279008, Final residual = 0.000199296, No Iterations 6
ExecutionTime = 0.135371 s  ClockTime = 0 s

Time = 59s

smoothSolver:  Solving for Ux, Initial residual = 0.00370884, Final residual = 0.000256389, No Iterations 6
smoothSolver:  Solving for Uy, Initial residual = 0.118584, Final residual = 0.00734852, No Iterations 3
Pressure gradient source: uncorrected Ubar = 0.999986, pressure gradient = 0.00424497
GAMG:  Solving for p, Initial residual = 0.0559591, Final residual = 0.00393965, No Iterations 5
time step continuity errors : sum local = 1.18378e-06, global = 4.0782e-18, cumulative = 4.36299e-18
Pressure gradient source: uncorrected Ubar = 1, pressure gradient = 0.00389433
smoothSolver:  Solving for omega, Initial residual = 1.77703e-05, Final residual = 9.57896e-06, No Iterations 1
smoothSolver:  Solving for k, Initial residual = 0.00284899, Final residual = 0.000260157, No Iterations 5
ExecutionTime = 0.137496 s  ClockTime = 0 s

Time = 60s

smoothSolver:  Solving for Ux, Initial residual = 0.00367443, Final residual = 0.000253463, No Iterations 6
smoothSolver:  Solving for Uy, Initial residual = 0.133733, Final residual = 0.00876974, No Iterations 3
Pressure gradient source: uncorrected Ubar = 0.999986, pressure gradient = 0.00427492
GAMG:  Solving for p, Initial residual = 0.0521231, Final residual = 0.0039168, No Iterations 5
time step continuity errors : sum local = 1.16271e-06, global = 2.97746e-18, cumulative = 7.34045e-18
Pressure gradient source: uncorrected Ubar = 0.999999, pressure gradient = 0.00390876
smoothSolver:  Solving for omega, Initial residual = 1.87222e-05, Final residual = 9.79933e-06, No Iterations 1
smoothSolver:  Solving for k, Initial residual = 0.00298466, Final residual = 0.000281523, No Iterations 5
ExecutionTime = 0.139469 s  ClockTime = 0 s

Time = 61s

smoothSolver:  Solving for Ux, Initial residual = 0.00364031, Final residual = 0.000250293, No Iterations 6
smoothSolver:  Solving for Uy, Initial residual = 0.109754, Final residual = 0.00543698, No Iterations 3
Pressure gradient source: uncorrected Ubar = 0.999986, pressure gradient = 0.00427905
GAMG:  Solving for p, Initial residual = 0.049313, Final residual = 0.00433049, No Iterations 5
time step continuity errors : sum local = 1.25476e-06, global = 9.34694e-19, cumulative = 8.27514e-18
Pressure gradient source: uncorrected Ubar = 1, pressure gradient = 0.00392188
smoothSolver:  Solving for omega, Initial residual = 1.86212e-05, Final residual = 9.78143e-06, No Iterations 1
smoothSolver:  Solving for k, Initial residual = 0.00311506, Final residual = 0.000277834, No Iterations 5
ExecutionTime = 0.14218 s  ClockTime = 0 s

Time = 62s

smoothSolver:  Solving for Ux, Initial residual = 0.0036076, Final residual = 0.00024736, No Iterations 6
smoothSolver:  Solving for Uy, Initial residual = 0.107293, Final residual = 0.0050314, No Iterations 3
Pressure gradient source: uncorrected Ubar = 0.999985, pressure gradient = 0.00431617
GAMG:  Solving for p, Initial residual = 0.0463485, Final residual = 0.00414962, No Iterations 4
time step continuity errors : sum local = 1.15567e-06, global = 8.17096e-19, cumulative = 9.09224e-18
Pressure gradient source: uncorrected Ubar = 0.999999, pressure gradient = 0.00393846
smoothSolver:  Solving for omega, Initial residual = 1.88588e-05, Final residual = 5.98218e-06, No Iterations 2
smoothSolver:  Solving for k, Initial residual = 0.00314009, Final residual = 0.000296257, No Iterations 5
ExecutionTime = 0.144386 s  ClockTime = 0 s

Time = 63s

smoothSolver:  Solving for Ux, Initial residual = 0.00356797, Final residual = 0.000244142, No Iterations 6
smoothSolver:  Solving for Uy, Initial residual = 0.0897828, Final residual = 0.00875941, No Iterations 2
Pressure gradient source: uncorrected Ubar = 0.999986, pressure gradient = 0.00432247
GAMG:  Solving for p, Initial residual = 0.0437512, Final residual = 0.00349542, No Iterations 6
time step continuity errors : sum local = 9.76041e-07, global = -6.61744e-21, cumulative = 9.08562e-18
Pressure gradient source: uncorrected Ubar = 0.999999, pressure gradient = 0.00395335
smoothSolver:  Solving for omega, Initial residual = 1.73128e-05, Final residual = 9.02758e-06, No Iterations 1
smoothSolver:  Solving for k, Initial residual = 0.00328244, Final residual = 0.00022373, No Iterations 6
ExecutionTime = 0.146455 s  ClockTime = 0 s

Time = 64s

smoothSolver:  Solving for Ux, Initial residual = 0.0035293, Final residual = 0.000240566, No Iterations 6
smoothSolver:  Solving for Uy, Initial residual = 0.092634, Final residual = 0.00578273, No Iterations 3
Pressure gradient source: uncorrected Ubar = 0.999987, pressure gradient = 0.00429437
GAMG:  Solving for p, Initial residual = 0.0454708, Final residual = 0.00444522, No Iterations 3
time step continuity errors : sum local = 1.19857e-06, global = -1.14128e-17, cumulative = -2.32717e-18
Pressure gradient source: uncorrected Ubar = 1, pressure gradient = 0.00396247
smoothSolver:  Solving for omega, Initial residual = 1.80643e-05, Final residual = 9.72297e-06, No Iterations 1
smoothSolver:  Solving for k, Initial residual = 0.00345075, Final residual = 0.000232555, No Iterations 6
ExecutionTime = 0.148406 s  ClockTime = 0 s

Time = 65s

smoothSolver:  Solving for Ux, Initial residual = 0.00348924, Final residual = 0.000236908, No Iterations 6
smoothSolver:  Solving for Uy, Initial residual = 0.0786488, Final residual = 0.00739941, No Iterations 2
Pressure gradient source: uncorrected Ubar = 0.999987, pressure gradient = 0.00430895
GAMG:  Solving for p, Initial residual = 0.0394132, Final residual = 0.00343442, No Iterations 5
time step continuity errors : sum local = 9.23201e-07, global = -3.99694e-20, cumulative = -2.36714e-18
Pressure gradient source: uncorrected Ubar = 1, pressure gradient = 0.00397257
smoothSolver:  Solving for omega, Initial residual = 1.80614e-05, Final residual = 9.96753e-06, No Iterations 1
smoothSolver:  Solving for k, Initial residual = 0.00351836, Final residual = 0.000320033, No Iterations 5
ExecutionTime = 0.150398 s  ClockTime = 0 s

Time = 66s

smoothSolver:  Solving for Ux, Initial residual = 0.00345391, Final residual = 0.000233373, No Iterations 6
smoothSolver:  Solving for Uy, Initial residual = 0.098361, Final residual = 0.0088449, No Iterations 3
Pressure gradient source: uncorrected Ubar = 0.999986, pressure gradient = 0.00433842
GAMG:  Solving for p, Initial residual = 0.0411695, Final residual = 0.00349251, No Iterations 5
time step continuity errors : sum local = 8.85047e-07, global = 4.16528e-18, cumulative = 1.79814e-18
Pressure gradient source: uncorrected Ubar = 1, pressure gradient = 0.00398553
smoothSolver:  Solving for omega, Initial residual = 1.79959e-05, Final residual = 9.4697e-06, No Iterations 1
smoothSolver:  Solving for k, Initial residual = 0.00362555, Final residual = 0.00029856, No Iterations 5
ExecutionTime = 0.152432 s  ClockTime = 0 s

Time = 67s

smoothSolver:  Solving for Ux, Initial residual = 0.00341623, Final residual = 0.000229588, No Iterations 6
smoothSolver:  Solving for Uy, Initial residual = 0.0968063, Final residual = 0.00583708, No Iterations 3
Pressure gradient source: uncorrected Ubar = 0.999987, pressure gradient = 0.00433307
GAMG:  Solving for p, Initial residual = 0.0467417, Final residual = 0.00428085, No Iterations 5
time step continuity errors : sum local = 1.0952e-06, global = -4.64882e-19, cumulative = 1.33326e-18
Pressure gradient source: uncorrected Ubar = 1, pressure gradient = 0.0039962
smoothSolver:  Solving for omega, Initial residual = 1.7875e-05, Final residual = 9.54933e-06, No Iterations 1
smoothSolver:  Solving for k, Initial residual = 0.00387169, Final residual = 0.000375175, No Iterations 5
ExecutionTime = 0.154627 s  ClockTime = 0 s

Time = 68s

smoothSolver:  Solving for Ux, Initial residual = 0.00337406, Final residual = 0.000225271, No Iterations 6
smoothSolver:  Solving for Uy, Initial residual = 0.0791403, Final residual = 0.00521311, No Iterations 3
Pressure gradient source: uncorrected Ubar = 0.999988, pressure gradient = 0.00433142
GAMG:  Solving for p, Initial residual = 0.0367672, Final residual = 0.00253762, No Iterations 7
time step continuity errors : sum local = 6.48862e-07, global = -3.98181e-18, cumulative = -2.64855e-18
Pressure gradient source: uncorrected Ubar = 1, pressure gradient = 0.00400542
smoothSolver:  Solving for omega, Initial residual = 1.78282e-05, Final residual = 9.63522e-06, No Iterations 1
smoothSolver:  Solving for k, Initial residual = 0.00401779, Final residual = 0.00037821, No Iterations 5
ExecutionTime = 0.157039 s  ClockTime = 0 s

Time = 69s

smoothSolver:  Solving for Ux, Initial residual = 0.00330553, Final residual = 0.000220484, No Iterations 6
smoothSolver:  Solving for Uy, Initial residual = 0.120022, Final residual = 0.00771639, No Iterations 4
Pressure gradient source: uncorrected Ubar = 0.999988, pressure gradient = 0.00433536
GAMG:  Solving for p, Initial residual = 0.0372534, Final residual = 0.00250918, No Iterations 4
time step continuity errors : sum local = 6.45952e-07, global = -6.97651e-18, cumulative = -9.62505e-18
Pressure gradient source: uncorrected Ubar = 1, pressure gradient = 0.00401422
smoothSolver:  Solving for omega, Initial residual = 1.76778e-05, Final residual = 9.45482e-06, No Iterations 1
smoothSolver:  Solving for k, Initial residual = 0.00419855, Final residual = 0.000277174, No Iterations 6
ExecutionTime = 0.159322 s  ClockTime = 0 s

Time = 70s

smoothSolver:  Solving for Ux, Initial residual = 0.00321548, Final residual = 0.000214635, No Iterations 6
smoothSolver:  Solving for Uy, Initial residual = 0.0917068, Final residual = 0.00734708, No Iterations 3
Pressure gradient source: uncorrected Ubar = 0.999989, pressure gradient = 0.00430321
GAMG:  Solving for p, Initial residual = 0.0359463, Final residual = 0.00305034, No Iterations 5
time step continuity errors : sum local = 8.07525e-07, global = 4.1883e-18, cumulative = -5.43676e-18
Pressure gradient source: uncorrected Ubar = 1, pressure gradient = 0.00401761
smoothSolver:  Solving for omega, Initial residual = 1.75289e-05, Final residual = 9.51814e-06, No Iterations 1
smoothSolver:  Solving for k, Initial residual = 0.00435802, Final residual = 0.000386109, No Iterations 5
ExecutionTime = 0.161511 s  ClockTime = 0 s

Time = 71s

smoothSolver:  Solving for Ux, Initial residual = 0.00314064, Final residual = 0.000209441, No Iterations 6
smoothSolver:  Solving for Uy, Initial residual = 0.0933817, Final residual = 0.00932662, No Iterations 3
Pressure gradient source: uncorrected Ubar = 0.999989, pressure gradient = 0.00432074
GAMG:  Solving for p, Initial residual = 0.024861, Final residual = 0.00222825, No Iterations 5
time step continuity errors : sum local = 5.86996e-07, global = 7.83672e-18, cumulative = 2.39996e-18
Pressure gradient source: uncorrected Ubar = 1, pressure gradient = 0.0040233
smoothSolver:  Solving for omega, Initial residual = 1.73669e-05, Final residual = 9.61183e-06, No Iterations 1
smoothSolver:  Solving for k, Initial residual = 0.00462361, Final residual = 0.000345749, No Iterations 6
ExecutionTime = 0.163566 s  ClockTime = 0 s

Time = 72s

smoothSolver:  Solving for Ux, Initial residual = 0.00306767, Final residual = 0.000203984, No Iterations 6
smoothSolver:  Solving for Uy, Initial residual = 0.101943, Final residual = 0.00537436, No Iterations 4
Pressure gradient source: uncorrected Ubar = 0.999989, pressure gradient = 0.00431474
GAMG:  Solving for p, Initial residual = 0.0322021, Final residual = 0.00302993, No Iterations 5
time step continuity errors : sum local = 8.1838e-07, global = 4.53947e-18, cumulative = 6.93943e-18
Pressure gradient source: uncorrected Ubar = 1, pressure gradient = 0.00402771
smoothSolver:  Solving for omega, Initial residual = 1.71702e-05, Final residual = 9.34653e-06, No Iterations 1
smoothSolver:  Solving for k, Initial residual = 0.00481618, Final residual = 0.000354687, No Iterations 6
ExecutionTime = 0.165581 s  ClockTime = 0 s

Time = 73s

smoothSolver:  Solving for Ux, Initial residual = 0.00299704, Final residual = 0.000198679, No Iterations 6
smoothSolver:  Solving for Uy, Initial residual = 0.0823937, Final residual = 0.0074678, No Iterations 3
Pressure gradient source: uncorrected Ubar = 0.999989, pressure gradient = 0.00431902
GAMG:  Solving for p, Initial residual = 0.0238616, Final residual = 0.00224496, No Iterations 6
time step continuity errors : sum local = 5.99873e-07, global = -8.60662e-18, cumulative = -1.6672e-18
Pressure gradient source: uncorrected Ubar = 1, pressure gradient = 0.00403257
smoothSolver:  Solving for omega, Initial residual = 1.68814e-05, Final residual = 8.90995e-06, No Iterations 1
smoothSolver:  Solving for k, Initial residual = 0.00490111, Final residual = 0.000313667, No Iterations 6
ExecutionTime = 0.167619 s  ClockTime = 0 s

Time = 74s

smoothSolver:  Solving for Ux, Initial residual = 0.00293601, Final residual = 0.000293511, No Iterations 5
smoothSolver:  Solving for Uy, Initial residual = 0.109225, Final residual = 0.00708022, No Iterations 4
Pressure gradient source: uncorrected Ubar = 0.999983, pressure gradient = 0.00450564
GAMG:  Solving for p, Initial residual = 0.039048, Final residual = 0.00326981, No Iterations 3
time step continuity errors : sum local = 8.6419e-07, global = 5.97013e-18, cumulative = 4.30293e-18
Pressure gradient source: uncorrected Ubar = 0.999999, pressure gradient = 0.00405389
smoothSolver:  Solving for omega, Initial residual = 1.66906e-05, Final residual = 9.57555e-06, No Iterations 1
smoothSolver:  Solving for k, Initial residual = 0.00490521, Final residual = 0.000377976, No Iterations 5
ExecutionTime = 0.169603 s  ClockTime = 0 s

Time = 75s

smoothSolver:  Solving for Ux, Initial residual = 0.00287809, Final residual = 0.000287632, No Iterations 5
smoothSolver:  Solving for Uy, Initial residual = 0.0951497, Final residual = 0.00603043, No Iterations 4
Pressure gradient source: uncorrected Ubar = 0.999985, pressure gradient = 0.00446338
GAMG:  Solving for p, Initial residual = 0.0238406, Final residual = 0.00165144, No Iterations 4
time step continuity errors : sum local = 4.52789e-07, global = 1.58408e-18, cumulative = 5.88701e-18
Pressure gradient source: uncorrected Ubar = 1, pressure gradient = 0.00406666
smoothSolver:  Solving for omega, Initial residual = 1.64472e-05, Final residual = 9.18061e-06, No Iterations 1
smoothSolver:  Solving for k, Initial residual = 0.00525848, Final residual = 0.000419381, No Iterations 6
ExecutionTime = 0.171778 s  ClockTime = 0 s

Time = 76s

smoothSolver:  Solving for Ux, Initial residual = 0.00281468, Final residual = 0.00028071, No Iterations 5
smoothSolver:  Solving for Uy, Initial residual = 0.0836464, Final residual = 0.00502446, No Iterations 4
Pressure gradient source: uncorrected Ubar = 0.999986, pressure gradient = 0.00445067
GAMG:  Solving for p, Initial residual = 0.0258697, Final residual = 0.0023678, No Iterations 3
time step continuity errors : sum local = 6.49415e-07, global = 2.94815e-18, cumulative = 8.83516e-18
Pressure gradient source: uncorrected Ubar = 1, pressure gradient = 0.00407641
smoothSolver:  Solving for omega, Initial residual = 1.6088e-05, Final residual = 8.58424e-06, No Iterations 1
smoothSolver:  Solving for k, Initial residual = 0.00536155, Final residual = 0.000418676, No Iterations 6
ExecutionTime = 0.174304 s  ClockTime = 0 s

Time = 77s

smoothSolver:  Solving for Ux, Initial residual = 0.002752, Final residual = 0.000274025, No Iterations 5
smoothSolver:  Solving for Uy, Initial residual = 0.0546688, Final residual = 0.00322504, No Iterations 4
Pressure gradient source: uncorrected Ubar = 0.999986, pressure gradient = 0.0044646
GAMG:  Solving for p, Initial residual = 0.0250416, Final residual = 0.00242233, No Iterations 9
time step continuity errors : sum local = 5.99655e-07, global = 1.53599e-18, cumulative = 1.03712e-17
Pressure gradient source: uncorrected Ubar = 1, pressure gradient = 0.00408753
smoothSolver:  Solving for omega, Initial residual = 1.59215e-05, Final residual = 9.02236e-06, No Iterations 1
smoothSolver:  Solving for k, Initial residual = 0.00544388, Final residual = 0.000417006, No Iterations 6
ExecutionTime = 0.176759 s  ClockTime = 0 s

Time = 78s

smoothSolver:  Solving for Ux, Initial residual = 0.00269536, Final residual = 0.000267911, No Iterations 5
smoothSolver:  Solving for Uy, Initial residual = 0.0546366, Final residual = 0.0054493, No Iterations 3
Pressure gradient source: uncorrected Ubar = 0.999986, pressure gradient = 0.0044704
GAMG:  Solving for p, Initial residual = 0.0220892, Final residual = 0.00199245, No Iterations 5
time step continuity errors : sum local = 5.54292e-07, global = 9.49749e-18, cumulative = 1.98686e-17
Pressure gradient source: uncorrected Ubar = 1, pressure gradient = 0.00409872
smoothSolver:  Solving for omega, Initial residual = 1.57216e-05, Final residual = 8.93109e-06, No Iterations 1
smoothSolver:  Solving for k, Initial residual = 0.00538859, Final residual = 0.000486935, No Iterations 5
ExecutionTime = 0.178876 s  ClockTime = 0 s

Time = 79s

smoothSolver:  Solving for Ux, Initial residual = 0.00264263, Final residual = 0.000262141, No Iterations 5
smoothSolver:  Solving for Uy, Initial residual = 0.078296, Final residual = 0.00454003, No Iterations 4
Pressure gradient source: uncorrected Ubar = 0.999986, pressure gradient = 0.0044675
GAMG:  Solving for p, Initial residual = 0.0309708, Final residual = 0.00243781, No Iterations 4
time step continuity errors : sum local = 6.37607e-07, global = -1.72637e-18, cumulative = 1.81423e-17
Pressure gradient source: uncorrected Ubar = 1, pressure gradient = 0.00410853
smoothSolver:  Solving for omega, Initial residual = 1.53744e-05, Final residual = 8.30948e-06, No Iterations 1
smoothSolver:  Solving for k, Initial residual = 0.00547662, Final residual = 0.000471709, No Iterations 5
ExecutionTime = 0.180955 s  ClockTime = 0 s

Time = 80s

smoothSolver:  Solving for Ux, Initial residual = 0.00259043, Final residual = 0.000256765, No Iterations 5
smoothSolver:  Solving for Uy, Initial residual = 0.0631305, Final residual = 0.0037007, No Iterations 4
Pressure gradient source: uncorrected Ubar = 0.999986, pressure gradient = 0.0044905
GAMG:  Solving for p, Initial residual = 0.0327521, Final residual = 0.00305287, No Iterations 7
time step continuity errors : sum local = 7.71271e-07, global = -4.78412e-18, cumulative = 1.33582e-17
Pressure gradient source: uncorrected Ubar = 1, pressure gradient = 0.004121
smoothSolver:  Solving for omega, Initial residual = 1.51471e-05, Final residual = 8.52566e-06, No Iterations 1
smoothSolver:  Solving for k, Initial residual = 0.0055664, Final residual = 0.000512421, No Iterations 5
ExecutionTime = 0.183033 s  ClockTime = 0 s

Time = 81s

smoothSolver:  Solving for Ux, Initial residual = 0.00253988, Final residual = 0.000251662, No Iterations 5
smoothSolver:  Solving for Uy, Initial residual = 0.0508332, Final residual = 0.00289122, No Iterations 4
Pressure gradient source: uncorrected Ubar = 0.999986, pressure gradient = 0.0044922
GAMG:  Solving for p, Initial residual = 0.0299596, Final residual = 0.00239763, No Iterations 9
time step continuity errors : sum local = 6.17687e-07, global = -4.68286e-18, cumulative = 8.67529e-18
Pressure gradient source: uncorrected Ubar = 1, pressure gradient = 0.00413273
smoothSolver:  Solving for omega, Initial residual = 1.499e-05, Final residual = 8.57373e-06, No Iterations 1
smoothSolver:  Solving for k, Initial residual = 0.0056547, Final residual = 0.000549605, No Iterations 5
ExecutionTime = 0.185156 s  ClockTime = 0 s

Time = 82s

smoothSolver:  Solving for Ux, Initial residual = 0.00248184, Final residual = 0.00024547, No Iterations 5
smoothSolver:  Solving for Uy, Initial residual = 0.0648059, Final residual = 0.00406548, No Iterations 4
Pressure gradient source: uncorrected Ubar = 0.999988, pressure gradient = 0.00446039
GAMG:  Solving for p, Initial residual = 0.0306453, Final residual = 0.00298186, No Iterations 5
time step continuity errors : sum local = 7.23293e-07, global = 6.78468e-18, cumulative = 1.546e-17
Pressure gradient source: uncorrected Ubar = 1, pressure gradient = 0.00413889
smoothSolver:  Solving for omega, Initial residual = 1.45799e-05, Final residual = 7.83561e-06, No Iterations 1
smoothSolver:  Solving for k, Initial residual = 0.00575823, Final residual = 0.000377341, No Iterations 6
ExecutionTime = 0.187298 s  ClockTime = 0 s

Time = 83s

smoothSolver:  Solving for Ux, Initial residual = 0.00243001, Final residual = 0.000240041, No Iterations 5
smoothSolver:  Solving for Uy, Initial residual = 0.0786889, Final residual = 0.00429744, No Iterations 4
Pressure gradient source: uncorrected Ubar = 0.999986, pressure gradient = 0.00450233
GAMG:  Solving for p, Initial residual = 0.032005, Final residual = 0.00231182, No Iterations 7
time step continuity errors : sum local = 5.82594e-07, global = 8.81642e-20, cumulative = 1.55481e-17
Pressure gradient source: uncorrected Ubar = 1, pressure gradient = 0.00415102
smoothSolver:  Solving for omega, Initial residual = 1.4386e-05, Final residual = 8.10054e-06, No Iterations 1
smoothSolver:  Solving for k, Initial residual = 0.00577403, Final residual = 0.000378508, No Iterations 6
ExecutionTime = 0.189414 s  ClockTime = 0 s

Time = 84s

smoothSolver:  Solving for Ux, Initial residual = 0.00238118, Final residual = 0.000234951, No Iterations 5
smoothSolver:  Solving for Uy, Initial residual = 0.0690722, Final residual = 0.00407916, No Iterations 4
Pressure gradient source: uncorrected Ubar = 0.999986, pressure gradient = 0.0045173
GAMG:  Solving for p, Initial residual = 0.0336688, Final residual = 0.00266097, No Iterations 9
time step continuity errors : sum local = 6.39774e-07, global = -8.17327e-18, cumulative = 7.37486e-18
Pressure gradient source: uncorrected Ubar = 0.999999, pressure gradient = 0.00416439
smoothSolver:  Solving for omega, Initial residual = 1.42002e-05, Final residual = 8.12935e-06, No Iterations 1
smoothSolver:  Solving for k, Initial residual = 0.0057848, Final residual = 0.000557147, No Iterations 5
ExecutionTime = 0.192303 s  ClockTime = 0 s

Time = 85s

smoothSolver:  Solving for Ux, Initial residual = 0.00232893, Final residual = 0.000229535, No Iterations 5
smoothSolver:  Solving for Uy, Initial residual = 0.0724008, Final residual = 0.00645041, No Iterations 3
Pressure gradient source: uncorrected Ubar = 0.999988, pressure gradient = 0.00448118
GAMG:  Solving for p, Initial residual = 0.0352835, Final residual = 0.00330974, No Iterations 4
time step continuity errors : sum local = 6.95352e-07, global = -5.04909e-18, cumulative = 2.32577e-18
Pressure gradient source: uncorrected Ubar = 1, pressure gradient = 0.00417139
smoothSolver:  Solving for omega, Initial residual = 1.38574e-05, Final residual = 7.57744e-06, No Iterations 1
smoothSolver:  Solving for k, Initial residual = 0.00576389, Final residual = 0.000483356, No Iterations 5
ExecutionTime = 0.194446 s  ClockTime = 0 s

Time = 86s

smoothSolver:  Solving for Ux, Initial residual = 0.00227781, Final residual = 0.000224249, No Iterations 5
smoothSolver:  Solving for Uy, Initial residual = 0.0700197, Final residual = 0.00557821, No Iterations 3
Pressure gradient source: uncorrected Ubar = 0.999988, pressure gradient = 0.00449804
GAMG:  Solving for p, Initial residual = 0.0434502, Final residual = 0.00361819, No Iterations 7
time step continuity errors : sum local = 7.45073e-07, global = -4.38806e-18, cumulative = -2.06229e-18
Pressure gradient source: uncorrected Ubar = 1, pressure gradient = 0.00418051
smoothSolver:  Solving for omega, Initial residual = 1.3655e-05, Final residual = 7.79749e-06, No Iterations 1
smoothSolver:  Solving for k, Initial residual = 0.00589663, Final residual = 0.000574809, No Iterations 5
ExecutionTime = 0.196564 s  ClockTime = 0 s

Time = 87s

smoothSolver:  Solving for Ux, Initial residual = 0.00222367, Final residual = 0.000218846, No Iterations 5
smoothSolver:  Solving for Uy, Initial residual = 0.077733, Final residual = 0.00396073, No Iterations 4
Pressure gradient source: uncorrected Ubar = 0.999988, pressure gradient = 0.00451129
GAMG:  Solving for p, Initial residual = 0.0427263, Final residual = 0.00408121, No Iterations 7
time step continuity errors : sum local = 8.78799e-07, global = -5.28884e-18, cumulative = -7.35112e-18
Pressure gradient source: uncorrected Ubar = 1, pressure gradient = 0.00419091
smoothSolver:  Solving for omega, Initial residual = 1.35067e-05, Final residual = 7.88251e-06, No Iterations 1
smoothSolver:  Solving for k, Initial residual = 0.00583048, Final residual = 0.000511372, No Iterations 5
ExecutionTime = 0.198623 s  ClockTime = 0 s

Time = 88s

smoothSolver:  Solving for Ux, Initial residual = 0.00217363, Final residual = 0.000213503, No Iterations 5
smoothSolver:  Solving for Uy, Initial residual = 0.0736227, Final residual = 0.0066199, No Iterations 3
Pressure gradient source: uncorrected Ubar = 0.999989, pressure gradient = 0.0044863
GAMG:  Solving for p, Initial residual = 0.0437806, Final residual = 0.00430078, No Iterations 4
time step continuity errors : sum local = 7.78813e-07, global = -3.52648e-18, cumulative = -1.08776e-17
Pressure gradient source: uncorrected Ubar = 1, pressure gradient = 0.00419696
smoothSolver:  Solving for omega, Initial residual = 1.3096e-05, Final residual = 7.19661e-06, No Iterations 1
smoothSolver:  Solving for k, Initial residual = 0.00597814, Final residual = 0.00043974, No Iterations 6
ExecutionTime = 0.200631 s  ClockTime = 0 s

Time = 89s

smoothSolver:  Solving for Ux, Initial residual = 0.0021243, Final residual = 0.0002084, No Iterations 5
smoothSolver:  Solving for Uy, Initial residual = 0.0549204, Final residual = 0.00466431, No Iterations 3
Pressure gradient source: uncorrected Ubar = 0.999988, pressure gradient = 0.00451944
[...]
smoothSolver:  Solving for omega, Initial residual = 8.41942e-06, Final residual = 8.41942e-06, No Iterations 0
smoothSolver:  Solving for k, Initial residual = 0.000102509, Final residual = 8.28897e-06, No Iterations 5
ExecutionTime = 0.735026 s  ClockTime = 1 s

Time = 333s

smoothSolver:  Solving for Ux, Initial residual = 1.32947e-05, Final residual = 7.90022e-06, No Iterations 1
smoothSolver:  Solving for Uy, Initial residual = 0.0197966, Final residual = 0.00143753, No Iterations 3
Pressure gradient source: uncorrected Ubar = 1, pressure gradient = 0.00417628
GAMG:  Solving for p, Initial residual = 0.00523116, Final residual = 0.000456839, No Iterations 7
time step continuity errors : sum local = 1.37889e-08, global = 6.01691e-20, cumulative = -1.36507e-16
Pressure gradient source: uncorrected Ubar = 1, pressure gradient = 0.00417622
smoothSolver:  Solving for omega, Initial residual = 8.41816e-06, Final residual = 8.41816e-06, No Iterations 0
smoothSolver:  Solving for k, Initial residual = 0.000103662, Final residual = 9.59587e-06, No Iterations 5
ExecutionTime = 0.737266 s  ClockTime = 1 s

Time = 334s

smoothSolver:  Solving for Ux, Initial residual = 1.24437e-05, Final residual = 7.37839e-06, No Iterations 1
smoothSolver:  Solving for Uy, Initial residual = 0.011297, Final residual = 0.000871205, No Iterations 3
Pressure gradient source: uncorrected Ubar = 1, pressure gradient = 0.00417606
GAMG:  Solving for p, Initial residual = 0.00534586, Final residual = 0.000524449, No Iterations 8
time step continuity errors : sum local = 1.74802e-08, global = 9.72896e-18, cumulative = -1.26778e-16
Pressure gradient source: uncorrected Ubar = 1, pressure gradient = 0.00417611
smoothSolver:  Solving for omega, Initial residual = 8.41773e-06, Final residual = 8.41773e-06, No Iterations 0
smoothSolver:  Solving for k, Initial residual = 0.000101356, Final residual = 9.05664e-06, No Iterations 5
ExecutionTime = 0.739402 s  ClockTime = 1 s

Time = 335s

smoothSolver:  Solving for Ux, Initial residual = 1.16063e-05, Final residual = 6.87807e-06, No Iterations 1
smoothSolver:  Solving for Uy, Initial residual = 0.0148329, Final residual = 0.00139361, No Iterations 3
Pressure gradient source: uncorrected Ubar = 1, pressure gradient = 0.00417589
GAMG:  Solving for p, Initial residual = 0.00578891, Final residual = 0.000494921, No Iterations 6
time step continuity errors : sum local = 1.75689e-08, global = 3.08064e-18, cumulative = -1.23697e-16
Pressure gradient source: uncorrected Ubar = 1, pressure gradient = 0.00417596
smoothSolver:  Solving for omega, Initial residual = 8.41631e-06, Final residual = 8.41631e-06, No Iterations 0
smoothSolver:  Solving for k, Initial residual = 0.000103012, Final residual = 8.8423e-06, No Iterations 5
ExecutionTime = 0.741787 s  ClockTime = 1 s

Time = 336s

smoothSolver:  Solving for Ux, Initial residual = 1.09187e-05, Final residual = 6.46283e-06, No Iterations 1
smoothSolver:  Solving for Uy, Initial residual = 0.0173992, Final residual = 0.00141026, No Iterations 3
Pressure gradient source: uncorrected Ubar = 1, pressure gradient = 0.00417575
GAMG:  Solving for p, Initial residual = 0.0055599, Final residual = 0.000547329, No Iterations 7
time step continuity errors : sum local = 1.8596e-08, global = 4.18326e-18, cumulative = -1.19514e-16
Pressure gradient source: uncorrected Ubar = 1, pressure gradient = 0.00417582
smoothSolver:  Solving for omega, Initial residual = 8.41356e-06, Final residual = 8.41356e-06, No Iterations 0
smoothSolver:  Solving for k, Initial residual = 0.00010139, Final residual = 8.71938e-06, No Iterations 5
ExecutionTime = 0.74411 s  ClockTime = 1 s

Time = 337s

smoothSolver:  Solving for Ux, Initial residual = 1.00297e-05, Final residual = 5.95037e-06, No Iterations 1
smoothSolver:  Solving for Uy, Initial residual = 0.0197154, Final residual = 0.00167159, No Iterations 3
Pressure gradient source: uncorrected Ubar = 1, pressure gradient = 0.00417556
GAMG:  Solving for p, Initial residual = 0.00504066, Final residual = 0.00041771, No Iterations 9
time step continuity errors : sum local = 1.33235e-08, global = 3.08642e-18, cumulative = -1.16428e-16
Pressure gradient source: uncorrected Ubar = 1, pressure gradient = 0.00417566
smoothSolver:  Solving for omega, Initial residual = 8.40972e-06, Final residual = 8.40972e-06, No Iterations 0
smoothSolver:  Solving for k, Initial residual = 0.000104303, Final residual = 6.89352e-06, No Iterations 6
ExecutionTime = 0.746566 s  ClockTime = 1 s

Time = 338s

smoothSolver:  Solving for Ux, Initial residual = 9.35841e-06, Final residual = 9.35841e-06, No Iterations 0
smoothSolver:  Solving for Uy, Initial residual = 0.0250607, Final residual = 0.00199707, No Iterations 3
Pressure gradient source: uncorrected Ubar = 1, pressure gradient = 0.00417566
GAMG:  Solving for p, Initial residual = 0.00511389, Final residual = 0.000464068, No Iterations 6
time step continuity errors : sum local = 1.56114e-08, global = -1.87588e-18, cumulative = -1.18304e-16
Pressure gradient source: uncorrected Ubar = 1, pressure gradient = 0.0041766
smoothSolver:  Solving for omega, Initial residual = 8.40895e-06, Final residual = 8.40895e-06, No Iterations 0
smoothSolver:  Solving for k, Initial residual = 0.000102023, Final residual = 9.27376e-06, No Iterations 5
ExecutionTime = 0.748686 s  ClockTime = 1 s

Time = 339s

smoothSolver:  Solving for Ux, Initial residual = 8.9987e-06, Final residual = 8.9987e-06, No Iterations 0
smoothSolver:  Solving for Uy, Initial residual = 0.0236321, Final residual = 0.00200205, No Iterations 3
Pressure gradient source: uncorrected Ubar = 1, pressure gradient = 0.0041766
GAMG:  Solving for p, Initial residual = 0.00530348, Final residual = 0.000519973, No Iterations 4
time step continuity errors : sum local = 1.66357e-08, global = 2.56156e-18, cumulative = -1.15742e-16
Pressure gradient source: uncorrected Ubar = 1, pressure gradient = 0.00417652
smoothSolver:  Solving for omega, Initial residual = 8.40745e-06, Final residual = 8.40745e-06, No Iterations 0
smoothSolver:  Solving for k, Initial residual = 0.000101348, Final residual = 9.43147e-06, No Iterations 5
ExecutionTime = 0.750688 s  ClockTime = 1 s

Time = 340s

smoothSolver:  Solving for Ux, Initial residual = 8.62559e-06, Final residual = 8.62559e-06, No Iterations 0
smoothSolver:  Solving for Uy, Initial residual = 0.0373043, Final residual = 0.0025068, No Iterations 3
Pressure gradient source: uncorrected Ubar = 1, pressure gradient = 0.00417652
GAMG:  Solving for p, Initial residual = 0.00586412, Final residual = 0.000492734, No Iterations 6
time step continuity errors : sum local = 1.61599e-08, global = 1.11162e-17, cumulative = -1.04626e-16
Pressure gradient source: uncorrected Ubar = 1, pressure gradient = 0.00417634
smoothSolver:  Solving for omega, Initial residual = 8.40589e-06, Final residual = 8.40589e-06, No Iterations 0
smoothSolver:  Solving for k, Initial residual = 9.87432e-05, Final residual = 7.10653e-06, No Iterations 5
ExecutionTime = 0.752715 s  ClockTime = 1 s

Time = 341s

smoothSolver:  Solving for Ux, Initial residual = 8.37006e-06, Final residual = 8.37006e-06, No Iterations 0
smoothSolver:  Solving for Uy, Initial residual = 0.0295448, Final residual = 0.00219879, No Iterations 3
Pressure gradient source: uncorrected Ubar = 1, pressure gradient = 0.00417634
GAMG:  Solving for p, Initial residual = 0.0048137, Final residual = 0.000405263, No Iterations 6
time step continuity errors : sum local = 1.41007e-08, global = -4.93456e-18, cumulative = -1.0956e-16
Pressure gradient source: uncorrected Ubar = 1, pressure gradient = 0.00417617
smoothSolver:  Solving for omega, Initial residual = 8.40394e-06, Final residual = 8.40394e-06, No Iterations 0
smoothSolver:  Solving for k, Initial residual = 0.000103915, Final residual = 6.74329e-06, No Iterations 6
ExecutionTime = 0.754937 s  ClockTime = 1 s

Time = 342s

smoothSolver:  Solving for Ux, Initial residual = 7.95487e-06, Final residual = 7.95487e-06, No Iterations 0
smoothSolver:  Solving for Uy, Initial residual = 0.0266179, Final residual = 0.00199917, No Iterations 3
Pressure gradient source: uncorrected Ubar = 1, pressure gradient = 0.00417617
GAMG:  Solving for p, Initial residual = 0.00439569, Final residual = 0.000412201, No Iterations 7
time step continuity errors : sum local = 1.30475e-08, global = -6.98746e-18, cumulative = -1.16548e-16
Pressure gradient source: uncorrected Ubar = 1, pressure gradient = 0.00417596
smoothSolver:  Solving for omega, Initial residual = 8.40087e-06, Final residual = 8.40087e-06, No Iterations 0
smoothSolver:  Solving for k, Initial residual = 0.000102004, Final residual = 6.57625e-06, No Iterations 6
ExecutionTime = 0.757054 s  ClockTime = 1 s

Time = 343s

smoothSolver:  Solving for Ux, Initial residual = 7.75642e-06, Final residual = 7.75642e-06, No Iterations 0
smoothSolver:  Solving for Uy, Initial residual = 0.0230677, Final residual = 0.00168134, No Iterations 3
Pressure gradient source: uncorrected Ubar = 1, pressure gradient = 0.00417596
GAMG:  Solving for p, Initial residual = 0.00441172, Final residual = 0.000399571, No Iterations 6
time step continuity errors : sum local = 1.48399e-08, global = -3.19137e-18, cumulative = -1.19739e-16
Pressure gradient source: uncorrected Ubar = 1, pressure gradient = 0.00417574
smoothSolver:  Solving for omega, Initial residual = 8.39851e-06, Final residual = 8.39851e-06, No Iterations 0
smoothSolver:  Solving for k, Initial residual = 0.000100059, Final residual = 8.87775e-06, No Iterations 5
ExecutionTime = 0.759429 s  ClockTime = 1 s

Time = 344s

smoothSolver:  Solving for Ux, Initial residual = 7.63887e-06, Final residual = 7.63887e-06, No Iterations 0
smoothSolver:  Solving for Uy, Initial residual = 0.0273557, Final residual = 0.00226014, No Iterations 3
Pressure gradient source: uncorrected Ubar = 1, pressure gradient = 0.00417574
GAMG:  Solving for p, Initial residual = 0.00423698, Final residual = 0.000320509, No Iterations 9
time step continuity errors : sum local = 1.11022e-08, global = 3.06582e-18, cumulative = -1.16673e-16
Pressure gradient source: uncorrected Ubar = 1, pressure gradient = 0.00417554
smoothSolver:  Solving for omega, Initial residual = 8.39453e-06, Final residual = 8.39453e-06, No Iterations 0
smoothSolver:  Solving for k, Initial residual = 9.92436e-05, Final residual = 7.26204e-06, No Iterations 5
ExecutionTime = 0.76169 s  ClockTime = 1 s

Time = 345s

smoothSolver:  Solving for Ux, Initial residual = 7.5974e-06, Final residual = 7.5974e-06, No Iterations 0
smoothSolver:  Solving for Uy, Initial residual = 0.0190452, Final residual = 0.00126409, No Iterations 3
Pressure gradient source: uncorrected Ubar = 1, pressure gradient = 0.00417554
GAMG:  Solving for p, Initial residual = 0.00427592, Final residual = 0.00040242, No Iterations 7
time step continuity errors : sum local = 1.25588e-08, global = 1.84821e-18, cumulative = -1.14825e-16
Pressure gradient source: uncorrected Ubar = 1, pressure gradient = 0.00417536
smoothSolver:  Solving for omega, Initial residual = 8.39022e-06, Final residual = 8.39022e-06, No Iterations 0
smoothSolver:  Solving for k, Initial residual = 0.000100652, Final residual = 6.63091e-06, No Iterations 6
ExecutionTime = 0.763765 s  ClockTime = 1 s

Time = 346s

smoothSolver:  Solving for Ux, Initial residual = 7.53331e-06, Final residual = 7.53331e-06, No Iterations 0
smoothSolver:  Solving for Uy, Initial residual = 0.0202298, Final residual = 0.00152159, No Iterations 3
Pressure gradient source: uncorrected Ubar = 1, pressure gradient = 0.00417536
GAMG:  Solving for p, Initial residual = 0.0036629, Final residual = 0.000280432, No Iterations 9
time step continuity errors : sum local = 8.99153e-09, global = 1.04921e-17, cumulative = -1.04333e-16
Pressure gradient source: uncorrected Ubar = 1, pressure gradient = 0.00417513
smoothSolver:  Solving for omega, Initial residual = 8.38579e-06, Final residual = 8.38579e-06, No Iterations 0
smoothSolver:  Solving for k, Initial residual = 9.74379e-05, Final residual = 8.48918e-06, No Iterations 5
ExecutionTime = 0.765965 s  ClockTime = 1 s

Time = 347s

smoothSolver:  Solving for Ux, Initial residual = 7.64708e-06, Final residual = 7.64708e-06, No Iterations 0
smoothSolver:  Solving for Uy, Initial residual = 0.0181151, Final residual = 0.00131547, No Iterations 3
Pressure gradient source: uncorrected Ubar = 1, pressure gradient = 0.00417513
GAMG:  Solving for p, Initial residual = 0.0038646, Final residual = 0.000330377, No Iterations 9
time step continuity errors : sum local = 1.04767e-08, global = -5.2909e-19, cumulative = -1.04862e-16
Pressure gradient source: uncorrected Ubar = 1, pressure gradient = 0.00417493
smoothSolver:  Solving for omega, Initial residual = 8.38097e-06, Final residual = 8.38097e-06, No Iterations 0
smoothSolver:  Solving for k, Initial residual = 9.61563e-05, Final residual = 6.66486e-06, No Iterations 5
ExecutionTime = 0.768095 s  ClockTime = 1 s

Time = 348s

smoothSolver:  Solving for Ux, Initial residual = 7.79565e-06, Final residual = 7.79565e-06, No Iterations 0
smoothSolver:  Solving for Uy, Initial residual = 0.0181149, Final residual = 0.00131015, No Iterations 3
Pressure gradient source: uncorrected Ubar = 1, pressure gradient = 0.00417493
GAMG:  Solving for p, Initial residual = 0.00366402, Final residual = 0.000357016, No Iterations 10
time step continuity errors : sum local = 1.14161e-08, global = -3.18799e-18, cumulative = -1.0805e-16
Pressure gradient source: uncorrected Ubar = 1, pressure gradient = 0.00417475
smoothSolver:  Solving for omega, Initial residual = 8.37586e-06, Final residual = 8.37586e-06, No Iterations 0
smoothSolver:  Solving for k, Initial residual = 9.6554e-05, Final residual = 8.6555e-06, No Iterations 5
ExecutionTime = 0.770383 s  ClockTime = 1 s

Time = 349s

smoothSolver:  Solving for Ux, Initial residual = 8.0275e-06, Final residual = 8.0275e-06, No Iterations 0
smoothSolver:  Solving for Uy, Initial residual = 0.0119095, Final residual = 0.000957695, No Iterations 3
Pressure gradient source: uncorrected Ubar = 1, pressure gradient = 0.00417475
GAMG:  Solving for p, Initial residual = 0.00308044, Final residual = 0.000288195, No Iterations 8
time step continuity errors : sum local = 9.09746e-09, global = 7.35689e-18, cumulative = -1.00693e-16
Pressure gradient source: uncorrected Ubar = 1, pressure gradient = 0.00417454
smoothSolver:  Solving for omega, Initial residual = 8.37006e-06, Final residual = 8.37006e-06, No Iterations 0
smoothSolver:  Solving for k, Initial residual = 9.83302e-05, Final residual = 9.03595e-06, No Iterations 5
ExecutionTime = 0.772449 s  ClockTime = 1 s

Time = 350s

smoothSolver:  Solving for Ux, Initial residual = 8.21029e-06, Final residual = 8.21029e-06, No Iterations 0
smoothSolver:  Solving for Uy, Initial residual = 0.0135309, Final residual = 0.00121035, No Iterations 3
Pressure gradient source: uncorrected Ubar = 1, pressure gradient = 0.00417454
GAMG:  Solving for p, Initial residual = 0.0035093, Final residual = 0.000335795, No Iterations 8
time step continuity errors : sum local = 1.12634e-08, global = 3.66858e-18, cumulative = -9.70247e-17
Pressure gradient source: uncorrected Ubar = 1, pressure gradient = 0.00417434
smoothSolver:  Solving for omega, Initial residual = 8.36427e-06, Final residual = 8.36427e-06, No Iterations 0
smoothSolver:  Solving for k, Initial residual = 9.69204e-05, Final residual = 7.72505e-06, No Iterations 5
ExecutionTime = 0.774992 s  ClockTime = 1 s

Time = 351s

smoothSolver:  Solving for Ux, Initial residual = 8.61563e-06, Final residual = 8.61563e-06, No Iterations 0
smoothSolver:  Solving for Uy, Initial residual = 0.0104251, Final residual = 0.000552194, No Iterations 3
Pressure gradient source: uncorrected Ubar = 1, pressure gradient = 0.00417434
GAMG:  Solving for p, Initial residual = 0.00283484, Final residual = 0.000273223, No Iterations 8
time step continuity errors : sum local = 8.57145e-09, global = 2.73552e-18, cumulative = -9.42892e-17
Pressure gradient source: uncorrected Ubar = 1, pressure gradient = 0.00417415
smoothSolver:  Solving for omega, Initial residual = 8.35749e-06, Final residual = 8.35749e-06, No Iterations 0
smoothSolver:  Solving for k, Initial residual = 9.48873e-05, Final residual = 8.80741e-06, No Iterations 5
ExecutionTime = 0.777231 s  ClockTime = 1 s

Time = 352s

smoothSolver:  Solving for Ux, Initial residual = 9.05043e-06, Final residual = 9.05043e-06, No Iterations 0
smoothSolver:  Solving for Uy, Initial residual = 0.0108857, Final residual = 0.000566802, No Iterations 3
Pressure gradient source: uncorrected Ubar = 1, pressure gradient = 0.00417415
GAMG:  Solving for p, Initial residual = 0.00316278, Final residual = 0.000291334, No Iterations 6
time step continuity errors : sum local = 9.66166e-09, global = 1.14803e-17, cumulative = -8.28089e-17
Pressure gradient source: uncorrected Ubar = 1, pressure gradient = 0.00417393
smoothSolver:  Solving for omega, Initial residual = 8.35098e-06, Final residual = 8.35098e-06, No Iterations 0
smoothSolver:  Solving for k, Initial residual = 9.64295e-05, Final residual = 9.22445e-06, No Iterations 5
ExecutionTime = 0.779374 s  ClockTime = 1 s

Time = 353s

smoothSolver:  Solving for Ux, Initial residual = 9.50321e-06, Final residual = 9.50321e-06, No Iterations 0
smoothSolver:  Solving for Uy, Initial residual = 0.0105472, Final residual = 0.000569299, No Iterations 3
Pressure gradient source: uncorrected Ubar = 1, pressure gradient = 0.00417393
GAMG:  Solving for p, Initial residual = 0.00317588, Final residual = 0.00030403, No Iterations 5
time step continuity errors : sum local = 9.07416e-09, global = 3.84821e-20, cumulative = -8.27705e-17
Pressure gradient source: uncorrected Ubar = 1, pressure gradient = 0.00417371
smoothSolver:  Solving for omega, Initial residual = 8.34349e-06, Final residual = 8.34349e-06, No Iterations 0
smoothSolver:  Solving for k, Initial residual = 9.21437e-05, Final residual = 7.01854e-06, No Iterations 5
ExecutionTime = 0.781463 s  ClockTime = 1 s

Time = 354s

smoothSolver:  Solving for Ux, Initial residual = 9.94424e-06, Final residual = 9.94424e-06, No Iterations 0
smoothSolver:  Solving for Uy, Initial residual = 0.0124523, Final residual = 0.000854261, No Iterations 3
Pressure gradient source: uncorrected Ubar = 1, pressure gradient = 0.00417371
GAMG:  Solving for p, Initial residual = 0.00341892, Final residual = 0.000259834, No Iterations 8
time step continuity errors : sum local = 8.64459e-09, global = 2.75703e-18, cumulative = -8.00134e-17
Pressure gradient source: uncorrected Ubar = 1, pressure gradient = 0.00417353
smoothSolver:  Solving for omega, Initial residual = 8.33645e-06, Final residual = 8.33645e-06, No Iterations 0
smoothSolver:  Solving for k, Initial residual = 9.15716e-05, Final residual = 6.83008e-06, No Iterations 5
ExecutionTime = 0.783613 s  ClockTime = 1 s

Time = 355s

smoothSolver:  Solving for Ux, Initial residual = 1.04417e-05, Final residual = 6.68953e-06, No Iterations 1
smoothSolver:  Solving for Uy, Initial residual = 0.00853621, Final residual = 0.000430513, No Iterations 3
Pressure gradient source: uncorrected Ubar = 1, pressure gradient = 0.00417391
GAMG:  Solving for p, Initial residual = 0.00694184, Final residual = 0.000632352, No Iterations 11
time step continuity errors : sum local = 1.91044e-08, global = 6.37539e-18, cumulative = -7.3638e-17
Pressure gradient source: uncorrected Ubar = 1, pressure gradient = 0.0041734
smoothSolver:  Solving for omega, Initial residual = 8.31102e-06, Final residual = 8.31102e-06, No Iterations 0
smoothSolver:  Solving for k, Initial residual = 9.03107e-05, Final residual = 7.33084e-06, No Iterations 5
ExecutionTime = 0.785799 s  ClockTime = 1 s


SIMPLE solution converged in 355 iterations

End

