/*---------------------------------------------------------------------------*\
  =========                 |
  \\      /  F ield         | OpenFOAM: The Open Source CFD Toolbox
   \\    /   O peration     | Website:  https://openfoam.org
    \\  /    A nd           | Version:  10
     \\/     M anipulation  |
\*---------------------------------------------------------------------------*/
Build  : 10-e450dce21ea5
Exec   : blockMesh
Date   : Feb 20 2023
Time   : 14:13:33
Host   : "w530-R9YK46P"
PID    : 18738
I/O    : uncollated
Case   : /home/jdmezazeron/gitDanielMezaZ/turbulenceVisualized/Data/SimulationFiles/K25_Re1693
nProcs : 1
sigFpe : Enabling floating point exception trapping (FOAM_SIGFPE).
fileModificationChecking : Monitoring run-time modified files using timeStampMaster (fileModificationSkew 10)
allowSystemOperations : Allowing user-supplied system call operations

// * * * * * * * * * * * * * * * * * * * * * * * * * * * * * * * * * * * * * //
Create time

Deleting polyMesh directory
    "/home/jdmezazeron/gitDanielMezaZ/turbulenceVisualized/Data/SimulationFiles/K25_Re1693/constant/polyMesh"
Reading "blockMeshDict"

Creating block mesh from
    "system/blockMeshDict"
Creating block edges
No non-planar block faces defined
Creating topology blocks
Creating topology patches

Creating block mesh topology

Check topology

	Basic statistics
		Number of internal faces : 0
		Number of boundary faces : 6
		Number of defined boundary faces : 6
		Number of undefined boundary faces : 0
	Checking patch -> block consistency

Creating block offsets
Creating merge list .

Creating polyMesh from blockMesh
Creating patches
Creating cells
Creating points with scale 1
    Block 0 cell size :
        i : 0.5
        j : 0.00461374 .. 0.018455
        k : 2

Detected cyclic patches; ordering boundary faces

Writing polyMesh
----------------
Mesh Information
----------------
  boundingBox: (-1 0 -1) (1 1 1)
  nPoints: 1010
  nCells: 400
  nFaces: 1704
  nInternalFaces: 696
----------------
Patches
----------------
  patch 0 (start: 696 size: 100) name: inlet
  patch 1 (start: 796 size: 100) name: outlet
  patch 2 (start: 896 size: 4) name: fixedWalls-bottom
  patch 3 (start: 900 size: 4) name: fixedWalls-top
  patch 4 (start: 904 size: 800) name: frontAndBack

End

/*---------------------------------------------------------------------------*\
  =========                 |
  \\      /  F ield         | OpenFOAM: The Open Source CFD Toolbox
   \\    /   O peration     | Website:  https://openfoam.org
    \\  /    A nd           | Version:  10
     \\/     M anipulation  |
\*---------------------------------------------------------------------------*/
Build  : 10-e450dce21ea5
Exec   : simpleFoam
Date   : Feb 20 2023
Time   : 14:13:33
Host   : "w530-R9YK46P"
PID    : 18739
I/O    : uncollated
Case   : /home/jdmezazeron/gitDanielMezaZ/turbulenceVisualized/Data/SimulationFiles/K25_Re1693
nProcs : 1
sigFpe : Enabling floating point exception trapping (FOAM_SIGFPE).
fileModificationChecking : Monitoring run-time modified files using timeStampMaster (fileModificationSkew 10)
allowSystemOperations : Allowing user-supplied system call operations

// * * * * * * * * * * * * * * * * * * * * * * * * * * * * * * * * * * * * * //
Create time

Create mesh for time = 0


SIMPLE: Convergence criteria found
        U: tolerance 0.0001
        p: tolerance 0.01
        omega: tolerance 0.0001

Reading field p

Reading field U

Reading/calculating face flux field phi

Selecting viscosity model Newtonian
Selecting turbulence model type RAS
Selecting RAS turbulence model kOmegaSST
Selecting patchDistMethod meshWave
RAS
{
    RASModel        kOmegaSST;
    turbulence      on;
    printCoeffs     on;
    alphaK1         0.85;
    alphaK2         1;
    alphaOmega1     0.5;
    alphaOmega2     0.856;
    gamma1          0.555556;
    gamma2          0.44;
    beta1           0.075;
    beta2           0.0828;
    betaStar        0.09;
    a1              0.31;
    b1              1;
    c1              10;
    F3              false;
}

No MRF models present

--> FOAM Warning : Creating fvModels from "system/fvOptions" rather than constant/fvModels
No fvModels present
--> FOAM Warning : Creating fvConstraints from "system/fvOptions"

Selecting finite volume constraint type meanVelocityForce
    Name: momentumSource
    - selecting all cells
    - selected 400 cell(s) with volume 4
    Initial pressure gradient = 0


Starting time loop

turbulenceFields stressComponents: storing fields:
    R

Time = 1s

smoothSolver:  Solving for Ux, Initial residual = 0, Final residual = 0, No Iterations 0
smoothSolver:  Solving for Uy, Initial residual = 0, Final residual = 0, No Iterations 0
Pressure gradient source: uncorrected Ubar = 0, pressure gradient = 1293.14
GAMG:  Solving for p, Initial residual = 0.999996, Final residual = 0.049011, No Iterations 3
time step continuity errors : sum local = 7.34444e-17, global = 2.95168e-18, cumulative = 2.95168e-18
Pressure gradient source: uncorrected Ubar = 0.884652, pressure gradient = 149.161
smoothSolver:  Solving for omega, Initial residual = 0.204476, Final residual = 0.0123548, No Iterations 3
smoothSolver:  Solving for k, Initial residual = 1, Final residual = 0.0800746, No Iterations 2
ExecutionTime = 0.013973 s  ClockTime = 0 s

Time = 2s

smoothSolver:  Solving for Ux, Initial residual = 0.989268, Final residual = 0.0905574, No Iterations 6
smoothSolver:  Solving for Uy, Initial residual = 1, Final residual = 0.0677808, No Iterations 6
Pressure gradient source: uncorrected Ubar = 40.377, pressure gradient = -1111.54
GAMG:  Solving for p, Initial residual = 1, Final residual = 0.0965853, No Iterations 9
time step continuity errors : sum local = 0.0328891, global = 1.00804e-16, cumulative = 1.03755e-16
Pressure gradient source: uncorrected Ubar = 6.07045, pressure gradient = -13.1757
smoothSolver:  Solving for omega, Initial residual = 0.194743, Final residual = 0.00100197, No Iterations 1
smoothSolver:  Solving for k, Initial residual = 0.97448, Final residual = 0.0294539, No Iterations 1
ExecutionTime = 0.01687 s  ClockTime = 0 s

Time = 3s

smoothSolver:  Solving for Ux, Initial residual = 0.471446, Final residual = 0.0399343, No Iterations 6
smoothSolver:  Solving for Uy, Initial residual = 0.535059, Final residual = 0.0444354, No Iterations 2
Pressure gradient source: uncorrected Ubar = -1.26316, pressure gradient = 98.9192
GAMG:  Solving for p, Initial residual = 0.191857, Final residual = 0.0160318, No Iterations 6
time step continuity errors : sum local = 0.0110463, global = 5.45354e-17, cumulative = 1.58291e-16
Pressure gradient source: uncorrected Ubar = 0.716671, pressure gradient = 0.857613
smoothSolver:  Solving for omega, Initial residual = 0.00954466, Final residual = 0.000275241, No Iterations 1
smoothSolver:  Solving for k, Initial residual = 0.390009, Final residual = 0.0219209, No Iterations 2
ExecutionTime = 0.019528 s  ClockTime = 0 s

Time = 4s

smoothSolver:  Solving for Ux, Initial residual = 0.0970698, Final residual = 0.00812847, No Iterations 4
smoothSolver:  Solving for Uy, Initial residual = 0.295724, Final residual = 0.0174177, No Iterations 3
Pressure gradient source: uncorrected Ubar = 1.04021, pressure gradient = -0.597028
GAMG:  Solving for p, Initial residual = 0.123492, Final residual = 0.00976733, No Iterations 9
time step continuity errors : sum local = 0.0112513, global = -7.53521e-18, cumulative = 1.50756e-16
Pressure gradient source: uncorrected Ubar = 1.0051, pressure gradient = 0.672946
smoothSolver:  Solving for omega, Initial residual = 0.00798585, Final residual = 0.000245688, No Iterations 1
smoothSolver:  Solving for k, Initial residual = 0.467878, Final residual = 0.0212999, No Iterations 3
ExecutionTime = 0.022255 s  ClockTime = 0 s

Time = 5s

smoothSolver:  Solving for Ux, Initial residual = 0.0785019, Final residual = 0.00725566, No Iterations 4
smoothSolver:  Solving for Uy, Initial residual = 0.35053, Final residual = 0.0163525, No Iterations 3
Pressure gradient source: uncorrected Ubar = 0.989886, pressure gradient = 1.08367
GAMG:  Solving for p, Initial residual = 0.146172, Final residual = 0.0137307, No Iterations 10
time step continuity errors : sum local = 0.0143594, global = -3.46326e-17, cumulative = 1.16123e-16
Pressure gradient source: uncorrected Ubar = 0.997536, pressure gradient = 0.773005
smoothSolver:  Solving for omega, Initial residual = 0.00436831, Final residual = 0.00017257, No Iterations 2
smoothSolver:  Solving for k, Initial residual = 0.679818, Final residual = 0.0293526, No Iterations 2
ExecutionTime = 0.025022 s  ClockTime = 0 s

Time = 6s

smoothSolver:  Solving for Ux, Initial residual = 0.064229, Final residual = 0.00536251, No Iterations 4
smoothSolver:  Solving for Uy, Initial residual = 0.672405, Final residual = 0.0307931, No Iterations 3
Pressure gradient source: uncorrected Ubar = 0.942752, pressure gradient = 3.27806
GAMG:  Solving for p, Initial residual = 0.249983, Final residual = 0.0209059, No Iterations 5
time step continuity errors : sum local = 0.0186382, global = 3.03577e-18, cumulative = 1.19159e-16
Pressure gradient source: uncorrected Ubar = 0.991384, pressure gradient = 1.15002
smoothSolver:  Solving for omega, Initial residual = 0.00478547, Final residual = 0.000255257, No Iterations 2
smoothSolver:  Solving for k, Initial residual = 0.393065, Final residual = 0.0199476, No Iterations 2
ExecutionTime = 0.027673 s  ClockTime = 0 s

Time = 7s

smoothSolver:  Solving for Ux, Initial residual = 0.0491218, Final residual = 0.00476622, No Iterations 4
smoothSolver:  Solving for Uy, Initial residual = 0.301938, Final residual = 0.0139433, No Iterations 3
Pressure gradient source: uncorrected Ubar = 0.983105, pressure gradient = 1.94349
GAMG:  Solving for p, Initial residual = 0.161987, Final residual = 0.0128013, No Iterations 7
time step continuity errors : sum local = 0.010491, global = 5.44744e-17, cumulative = 1.73633e-16
Pressure gradient source: uncorrected Ubar = 0.997807, pressure gradient = 1.253
smoothSolver:  Solving for omega, Initial residual = 0.00362302, Final residual = 0.000119832, No Iterations 2
smoothSolver:  Solving for k, Initial residual = 0.185304, Final residual = 0.0144646, No Iterations 2
ExecutionTime = 0.030326 s  ClockTime = 0 s

Time = 8s

smoothSolver:  Solving for Ux, Initial residual = 0.0466381, Final residual = 0.00440427, No Iterations 4
smoothSolver:  Solving for Uy, Initial residual = 0.352038, Final residual = 0.0186015, No Iterations 3
Pressure gradient source: uncorrected Ubar = 0.993008, pressure gradient = 1.61643
GAMG:  Solving for p, Initial residual = 0.179497, Final residual = 0.0162891, No Iterations 8
time step continuity errors : sum local = 0.00915022, global = -2.81283e-17, cumulative = 1.45505e-16
Pressure gradient source: uncorrected Ubar = 0.998944, pressure gradient = 1.3079
smoothSolver:  Solving for omega, Initial residual = 0.00185055, Final residual = 0.000134444, No Iterations 2
smoothSolver:  Solving for k, Initial residual = 0.160356, Final residual = 0.00781623, No Iterations 3
ExecutionTime = 0.033005 s  ClockTime = 0 s

Time = 9s

smoothSolver:  Solving for Ux, Initial residual = 0.0358591, Final residual = 0.00344586, No Iterations 4
smoothSolver:  Solving for Uy, Initial residual = 0.34195, Final residual = 0.0202901, No Iterations 3
Pressure gradient source: uncorrected Ubar = 0.967866, pressure gradient = 3.29985
GAMG:  Solving for p, Initial residual = 0.184043, Final residual = 0.0182966, No Iterations 8
time step continuity errors : sum local = 0.0116405, global = 9.75147e-18, cumulative = 1.55256e-16
Pressure gradient source: uncorrected Ubar = 0.995418, pressure gradient = 1.59196
smoothSolver:  Solving for omega, Initial residual = 0.00157501, Final residual = 8.03759e-05, No Iterations 3
smoothSolver:  Solving for k, Initial residual = 0.125854, Final residual = 0.0109227, No Iterations 3
ExecutionTime = 0.035699 s  ClockTime = 0 s

Time = 10s

smoothSolver:  Solving for Ux, Initial residual = 0.0296276, Final residual = 0.00291038, No Iterations 4
smoothSolver:  Solving for Uy, Initial residual = 0.351941, Final residual = 0.0200576, No Iterations 3
Pressure gradient source: uncorrected Ubar = 0.977571, pressure gradient = 3.20702
GAMG:  Solving for p, Initial residual = 0.153564, Final residual = 0.0138203, No Iterations 9
time step continuity errors : sum local = 0.00957687, global = 5.73526e-17, cumulative = 2.12609e-16
Pressure gradient source: uncorrected Ubar = 0.996771, pressure gradient = 1.82445
smoothSolver:  Solving for omega, Initial residual = 0.00125648, Final residual = 9.15777e-05, No Iterations 3
smoothSolver:  Solving for k, Initial residual = 0.102432, Final residual = 0.00604276, No Iterations 4
ExecutionTime = 0.038444 s  ClockTime = 0 s

Time = 11s

smoothSolver:  Solving for Ux, Initial residual = 0.0254386, Final residual = 0.00166104, No Iterations 5
smoothSolver:  Solving for Uy, Initial residual = 0.363359, Final residual = 0.0200728, No Iterations 3
Pressure gradient source: uncorrected Ubar = 0.990391, pressure gradient = 2.59941
GAMG:  Solving for p, Initial residual = 0.132656, Final residual = 0.0116866, No Iterations 10
time step continuity errors : sum local = 0.00938033, global = -3.18749e-17, cumulative = 1.80734e-16
Pressure gradient source: uncorrected Ubar = 0.998735, pressure gradient = 1.92644
smoothSolver:  Solving for omega, Initial residual = 0.00119045, Final residual = 0.000103533, No Iterations 3
smoothSolver:  Solving for k, Initial residual = 0.0834264, Final residual = 0.00669449, No Iterations 4
ExecutionTime = 0.041242 s  ClockTime = 0 s

Time = 12s

smoothSolver:  Solving for Ux, Initial residual = 0.0218952, Final residual = 0.00144447, No Iterations 5
smoothSolver:  Solving for Uy, Initial residual = 0.276629, Final residual = 0.0222629, No Iterations 3
Pressure gradient source: uncorrected Ubar = 0.990947, pressure gradient = 2.75883
GAMG:  Solving for p, Initial residual = 0.123935, Final residual = 0.0101895, No Iterations 4
time step continuity errors : sum local = 0.00956144, global = -1.10055e-17, cumulative = 1.69728e-16
Pressure gradient source: uncorrected Ubar = 0.998767, pressure gradient = 2.03978
smoothSolver:  Solving for omega, Initial residual = 0.00107607, Final residual = 6.51026e-05, No Iterations 4
smoothSolver:  Solving for k, Initial residual = 0.0687914, Final residual = 0.00647026, No Iterations 4
ExecutionTime = 0.04379 s  ClockTime = 0 s

Time = 13s

smoothSolver:  Solving for Ux, Initial residual = 0.0196326, Final residual = 0.00131698, No Iterations 5
smoothSolver:  Solving for Uy, Initial residual = 0.264593, Final residual = 0.0242162, No Iterations 3
Pressure gradient source: uncorrected Ubar = 0.995114, pressure gradient = 2.53577
GAMG:  Solving for p, Initial residual = 0.101332, Final residual = 0.00868039, No Iterations 9
time step continuity errors : sum local = 0.00869637, global = 9.32499e-18, cumulative = 1.79053e-16
Pressure gradient source: uncorrected Ubar = 0.999427, pressure gradient = 2.09799
smoothSolver:  Solving for omega, Initial residual = 0.000945454, Final residual = 6.48493e-05, No Iterations 4
smoothSolver:  Solving for k, Initial residual = 0.0588801, Final residual = 0.00380471, No Iterations 5
ExecutionTime = 0.046531 s  ClockTime = 0 s

Time = 14s

smoothSolver:  Solving for Ux, Initial residual = 0.0177056, Final residual = 0.00120858, No Iterations 5
smoothSolver:  Solving for Uy, Initial residual = 0.249653, Final residual = 0.0239954, No Iterations 3
Pressure gradient source: uncorrected Ubar = 0.997111, pressure gradient = 2.42776
GAMG:  Solving for p, Initial residual = 0.0812873, Final residual = 0.0080774, No Iterations 7
time step continuity errors : sum local = 0.00792515, global = 5.039e-18, cumulative = 1.84092e-16
Pressure gradient source: uncorrected Ubar = 0.999668, pressure gradient = 2.13587
smoothSolver:  Solving for omega, Initial residual = 0.000873675, Final residual = 7.23469e-05, No Iterations 4
smoothSolver:  Solving for k, Initial residual = 0.050514, Final residual = 0.00348509, No Iterations 5
ExecutionTime = 0.049233 s  ClockTime = 0 s

Time = 15s

smoothSolver:  Solving for Ux, Initial residual = 0.0163458, Final residual = 0.00113548, No Iterations 5
smoothSolver:  Solving for Uy, Initial residual = 0.20849, Final residual = 0.0116235, No Iterations 4
Pressure gradient source: uncorrected Ubar = 0.999293, pressure gradient = 2.22461
GAMG:  Solving for p, Initial residual = 0.064162, Final residual = 0.00498423, No Iterations 8
time step continuity errors : sum local = 0.00505772, global = 2.21043e-17, cumulative = 2.06197e-16
Pressure gradient source: uncorrected Ubar = 0.999949, pressure gradient = 2.14227
smoothSolver:  Solving for omega, Initial residual = 0.000831431, Final residual = 7.1914e-05, No Iterations 4
smoothSolver:  Solving for k, Initial residual = 0.0445929, Final residual = 0.00349755, No Iterations 5
ExecutionTime = 0.051972 s  ClockTime = 0 s

Time = 16s

smoothSolver:  Solving for Ux, Initial residual = 0.0151746, Final residual = 0.00107013, No Iterations 5
smoothSolver:  Solving for Uy, Initial residual = 0.215388, Final residual = 0.0135619, No Iterations 4
Pressure gradient source: uncorrected Ubar = 1.00149, pressure gradient = 1.93451
GAMG:  Solving for p, Initial residual = 0.0562523, Final residual = 0.00469564, No Iterations 8
time step continuity errors : sum local = 0.0038084, global = -3.19077e-18, cumulative = 2.03006e-16
Pressure gradient source: uncorrected Ubar = 1.00018, pressure gradient = 2.11785
smoothSolver:  Solving for omega, Initial residual = 0.00077474, Final residual = 4.69726e-05, No Iterations 5
smoothSolver:  Solving for k, Initial residual = 0.0393407, Final residual = 0.00324446, No Iterations 5
ExecutionTime = 0.054696 s  ClockTime = 0 s

Time = 17s

smoothSolver:  Solving for Ux, Initial residual = 0.014225, Final residual = 0.00101891, No Iterations 5
smoothSolver:  Solving for Uy, Initial residual = 0.248715, Final residual = 0.0168201, No Iterations 4
Pressure gradient source: uncorrected Ubar = 1.00244, pressure gradient = 1.74799
GAMG:  Solving for p, Initial residual = 0.0548239, Final residual = 0.00457903, No Iterations 10
time step continuity errors : sum local = 0.00242076, global = 6.00656e-17, cumulative = 2.63072e-16
Pressure gradient source: uncorrected Ubar = 1.00027, pressure gradient = 2.07724
smoothSolver:  Solving for omega, Initial residual = 0.000735015, Final residual = 4.5215e-05, No Iterations 5
smoothSolver:  Solving for k, Initial residual = 0.0356498, Final residual = 0.00322837, No Iterations 5
ExecutionTime = 0.057544 s  ClockTime = 0 s

Time = 18s

smoothSolver:  Solving for Ux, Initial residual = 0.0134002, Final residual = 0.000969937, No Iterations 5
smoothSolver:  Solving for Uy, Initial residual = 0.291171, Final residual = 0.0228999, No Iterations 4
Pressure gradient source: uncorrected Ubar = 1.00393, pressure gradient = 1.4297
GAMG:  Solving for p, Initial residual = 0.0705709, Final residual = 0.00666877, No Iterations 10
time step continuity errors : sum local = 0.00278042, global = -2.43924e-17, cumulative = 2.38679e-16
Pressure gradient source: uncorrected Ubar = 1.00043, pressure gradient = 2.00656
smoothSolver:  Solving for omega, Initial residual = 0.000662907, Final residual = 4.51962e-05, No Iterations 5
smoothSolver:  Solving for k, Initial residual = 0.0319039, Final residual = 0.0029968, No Iterations 5
ExecutionTime = 0.060376 s  ClockTime = 0 s

Time = 19s

smoothSolver:  Solving for Ux, Initial residual = 0.0126963, Final residual = 0.000932114, No Iterations 5
smoothSolver:  Solving for Uy, Initial residual = 0.350597, Final residual = 0.0265586, No Iterations 4
Pressure gradient source: uncorrected Ubar = 1.00398, pressure gradient = 1.30182
GAMG:  Solving for p, Initial residual = 0.0870975, Final residual = 0.00765907, No Iterations 12
time step continuity errors : sum local = 0.00223764, global = -4.09147e-17, cumulative = 1.97764e-16
Pressure gradient source: uncorrected Ubar = 1.00042, pressure gradient = 1.93261
smoothSolver:  Solving for omega, Initial residual = 0.000623994, Final residual = 4.59347e-05, No Iterations 5
smoothSolver:  Solving for k, Initial residual = 0.028546, Final residual = 0.00277876, No Iterations 5
ExecutionTime = 0.063308 s  ClockTime = 0 s

Time = 20s

smoothSolver:  Solving for Ux, Initial residual = 0.012094, Final residual = 0.000896244, No Iterations 5
smoothSolver:  Solving for Uy, Initial residual = 0.380252, Final residual = 0.0266414, No Iterations 4
Pressure gradient source: uncorrected Ubar = 1.00387, pressure gradient = 1.20123
GAMG:  Solving for p, Initial residual = 0.118089, Final residual = 0.00988737, No Iterations 13
time step continuity errors : sum local = 0.00157125, global = -1.70493e-17, cumulative = 1.80715e-16
Pressure gradient source: uncorrected Ubar = 1.0004, pressure gradient = 1.85759
smoothSolver:  Solving for omega, Initial residual = 0.000575438, Final residual = 4.64999e-05, No Iterations 5
smoothSolver:  Solving for k, Initial residual = 0.0259108, Final residual = 0.00165946, No Iterations 6
ExecutionTime = 0.066267 s  ClockTime = 0 s

Time = 21s

smoothSolver:  Solving for Ux, Initial residual = 0.0115522, Final residual = 0.000865875, No Iterations 5
smoothSolver:  Solving for Uy, Initial residual = 0.283397, Final residual = 0.0190156, No Iterations 4
Pressure gradient source: uncorrected Ubar = 1.00339, pressure gradient = 1.17696
GAMG:  Solving for p, Initial residual = 0.15355, Final residual = 0.01479, No Iterations 15
time step continuity errors : sum local = 0.00124122, global = 1.1357e-17, cumulative = 1.92072e-16
Pressure gradient source: uncorrected Ubar = 1.00033, pressure gradient = 1.79146
smoothSolver:  Solving for omega, Initial residual = 0.000533329, Final residual = 4.59168e-05, No Iterations 5
smoothSolver:  Solving for k, Initial residual = 0.0234007, Final residual = 0.00154727, No Iterations 6
ExecutionTime = 0.069331 s  ClockTime = 0 s

Time = 22s

smoothSolver:  Solving for Ux, Initial residual = 0.0110834, Final residual = 0.000839319, No Iterations 5
smoothSolver:  Solving for Uy, Initial residual = 0.163645, Final residual = 0.0118929, No Iterations 4
Pressure gradient source: uncorrected Ubar = 1.00314, pressure gradient = 1.12473
GAMG:  Solving for p, Initial residual = 0.0810531, Final residual = 0.00771451, No Iterations 13
time step continuity errors : sum local = 0.000934356, global = 1.05845e-17, cumulative = 2.02657e-16
Pressure gradient source: uncorrected Ubar = 1.0003, pressure gradient = 1.72864
smoothSolver:  Solving for omega, Initial residual = 0.000493372, Final residual = 4.30766e-05, No Iterations 5
smoothSolver:  Solving for k, Initial residual = 0.0211746, Final residual = 0.00143661, No Iterations 6
ExecutionTime = 0.07231 s  ClockTime = 0 s

Time = 23s

smoothSolver:  Solving for Ux, Initial residual = 0.0106642, Final residual = 0.000813965, No Iterations 5
smoothSolver:  Solving for Uy, Initial residual = 0.0922434, Final residual = 0.00720336, No Iterations 4
Pressure gradient source: uncorrected Ubar = 1.00277, pressure gradient = 1.108
GAMG:  Solving for p, Initial residual = 0.0536234, Final residual = 0.00461412, No Iterations 11
time step continuity errors : sum local = 0.000594757, global = -5.04832e-18, cumulative = 1.97608e-16
Pressure gradient source: uncorrected Ubar = 1.00025, pressure gradient = 1.67259
smoothSolver:  Solving for omega, Initial residual = 0.000465601, Final residual = 4.37209e-05, No Iterations 5
smoothSolver:  Solving for k, Initial residual = 0.0192719, Final residual = 0.00133756, No Iterations 6
ExecutionTime = 0.075197 s  ClockTime = 0 s

Time = 24s

smoothSolver:  Solving for Ux, Initial residual = 0.0102708, Final residual = 0.000792613, No Iterations 5
smoothSolver:  Solving for Uy, Initial residual = 0.0642516, Final residual = 0.0052841, No Iterations 4
Pressure gradient source: uncorrected Ubar = 1.00219, pressure gradient = 1.15856
GAMG:  Solving for p, Initial residual = 0.041386, Final residual = 0.00378661, No Iterations 6
time step continuity errors : sum local = 0.000431253, global = -5.1025e-18, cumulative = 1.92506e-16
Pressure gradient source: uncorrected Ubar = 1.00018, pressure gradient = 1.63079
smoothSolver:  Solving for omega, Initial residual = 0.000441029, Final residual = 4.18714e-05, No Iterations 5
smoothSolver:  Solving for k, Initial residual = 0.0176489, Final residual = 0.00125025, No Iterations 6
ExecutionTime = 0.07783 s  ClockTime = 0 s

Time = 25s

smoothSolver:  Solving for Ux, Initial residual = 0.00993186, Final residual = 0.000772198, No Iterations 5
smoothSolver:  Solving for Uy, Initial residual = 0.0382636, Final residual = 0.00340397, No Iterations 4
Pressure gradient source: uncorrected Ubar = 1.00194, pressure gradient = 1.15334
GAMG:  Solving for p, Initial residual = 0.038077, Final residual = 0.0032153, No Iterations 4
time step continuity errors : sum local = 0.000264065, global = -2.54788e-18, cumulative = 1.89958e-16
Pressure gradient source: uncorrected Ubar = 1.00015, pressure gradient = 1.59381
smoothSolver:  Solving for omega, Initial residual = 0.000422131, Final residual = 2.73137e-05, No Iterations 6
smoothSolver:  Solving for k, Initial residual = 0.0161622, Final residual = 0.00116551, No Iterations 6
ExecutionTime = 0.08039 s  ClockTime = 0 s

Time = 26s

smoothSolver:  Solving for Ux, Initial residual = 0.00961067, Final residual = 0.0007521, No Iterations 5
smoothSolver:  Solving for Uy, Initial residual = 0.0336138, Final residual = 0.00216958, No Iterations 5
Pressure gradient source: uncorrected Ubar = 1.00165, pressure gradient = 1.16943
GAMG:  Solving for p, Initial residual = 0.0465363, Final residual = 0.00313435, No Iterations 4
time step continuity errors : sum local = 0.000133486, global = -3.57441e-18, cumulative = 1.86384e-16
Pressure gradient source: uncorrected Ubar = 1.00012, pressure gradient = 1.5638
smoothSolver:  Solving for omega, Initial residual = 0.000401494, Final residual = 2.59222e-05, No Iterations 6
smoothSolver:  Solving for k, Initial residual = 0.0149345, Final residual = 0.00110357, No Iterations 6
ExecutionTime = 0.082968 s  ClockTime = 0 s

Time = 27s

smoothSolver:  Solving for Ux, Initial residual = 0.00930821, Final residual = 0.000734745, No Iterations 5
smoothSolver:  Solving for Uy, Initial residual = 0.0309646, Final residual = 0.00219207, No Iterations 5
Pressure gradient source: uncorrected Ubar = 1.00153, pressure gradient = 1.15439
GAMG:  Solving for p, Initial residual = 0.071639, Final residual = 0.00714095, No Iterations 8
time step continuity errors : sum local = 0.000198024, global = 1.44605e-17, cumulative = 2.00844e-16
Pressure gradient source: uncorrected Ubar = 1.0001, pressure gradient = 1.53595
smoothSolver:  Solving for omega, Initial residual = 0.00038696, Final residual = 2.66588e-05, No Iterations 6
smoothSolver:  Solving for k, Initial residual = 0.0137228, Final residual = 0.00101895, No Iterations 6
ExecutionTime = 0.085696 s  ClockTime = 0 s

Time = 28s

smoothSolver:  Solving for Ux, Initial residual = 0.00904677, Final residual = 0.000715186, No Iterations 5
smoothSolver:  Solving for Uy, Initial residual = 0.0410359, Final residual = 0.00306683, No Iterations 5
Pressure gradient source: uncorrected Ubar = 1.00121, pressure gradient = 1.20012
GAMG:  Solving for p, Initial residual = 0.0434191, Final residual = 0.00399559, No Iterations 8
time step continuity errors : sum local = 0.000199701, global = -1.4203e-17, cumulative = 1.86641e-16
Pressure gradient source: uncorrected Ubar = 1.00007, pressure gradient = 1.5174
smoothSolver:  Solving for omega, Initial residual = 0.000364667, Final residual = 2.53092e-05, No Iterations 6
smoothSolver:  Solving for k, Initial residual = 0.012624, Final residual = 0.000947064, No Iterations 6
ExecutionTime = 0.088538 s  ClockTime = 0 s

Time = 29s

smoothSolver:  Solving for Ux, Initial residual = 0.00877745, Final residual = 0.000689516, No Iterations 5
smoothSolver:  Solving for Uy, Initial residual = 0.0410359, Final residual = 0.00336274, No Iterations 5
Pressure gradient source: uncorrected Ubar = 1.001, pressure gradient = 1.22835
GAMG:  Solving for p, Initial residual = 0.0241383, Final residual = 0.00213383, No Iterations 14
time step continuity errors : sum local = 0.000154182, global = -1.04354e-17, cumulative = 1.76206e-16
Pressure gradient source: uncorrected Ubar = 1.00004, pressure gradient = 1.50478
smoothSolver:  Solving for omega, Initial residual = 0.000349824, Final residual = 2.4829e-05, No Iterations 6
smoothSolver:  Solving for k, Initial residual = 0.0112701, Final residual = 0.000853459, No Iterations 6
ExecutionTime = 0.091617 s  ClockTime = 0 s

Time = 30s

smoothSolver:  Solving for Ux, Initial residual = 0.008451, Final residual = 0.000663398, No Iterations 5
smoothSolver:  Solving for Uy, Initial residual = 0.039807, Final residual = 0.0030793, No Iterations 5
Pressure gradient source: uncorrected Ubar = 1.00089, pressure gradient = 1.23706
GAMG:  Solving for p, Initial residual = 0.015526, Final residual = 0.00144285, No Iterations 9
time step continuity errors : sum local = 0.000122186, global = 8.2467e-18, cumulative = 1.84452e-16
Pressure gradient source: uncorrected Ubar = 1.00003, pressure gradient = 1.49485
smoothSolver:  Solving for omega, Initial residual = 0.000338996, Final residual = 2.4369e-05, No Iterations 6
smoothSolver:  Solving for k, Initial residual = 0.010036, Final residual = 0.00076594, No Iterations 6
ExecutionTime = 0.094422 s  ClockTime = 0 s

Time = 31s

smoothSolver:  Solving for Ux, Initial residual = 0.00813517, Final residual = 0.00063941, No Iterations 5
smoothSolver:  Solving for Uy, Initial residual = 0.0333331, Final residual = 0.00277425, No Iterations 5
Pressure gradient source: uncorrected Ubar = 1.00081, pressure gradient = 1.24322
GAMG:  Solving for p, Initial residual = 0.011937, Final residual = 0.00110184, No Iterations 13
time step continuity errors : sum local = 0.000100814, global = 4.31309e-18, cumulative = 1.88765e-16
Pressure gradient source: uncorrected Ubar = 1.00003, pressure gradient = 1.48687
smoothSolver:  Solving for omega, Initial residual = 0.00032826, Final residual = 2.44417e-05, No Iterations 6
smoothSolver:  Solving for k, Initial residual = 0.00901575, Final residual = 0.000679894, No Iterations 6
ExecutionTime = 0.097393 s  ClockTime = 0 s

Time = 32s

smoothSolver:  Solving for Ux, Initial residual = 0.00783858, Final residual = 0.000617375, No Iterations 5
smoothSolver:  Solving for Uy, Initial residual = 0.0336216, Final residual = 0.00292521, No Iterations 5
Pressure gradient source: uncorrected Ubar = 1.0007, pressure gradient = 1.26369
GAMG:  Solving for p, Initial residual = 0.0116498, Final residual = 0.00107161, No Iterations 9
time step continuity errors : sum local = 9.51454e-05, global = 3.43658e-17, cumulative = 2.23131e-16
Pressure gradient source: uncorrected Ubar = 1.00001, pressure gradient = 1.48232
smoothSolver:  Solving for omega, Initial residual = 0.000317681, Final residual = 2.33643e-05, No Iterations 6
smoothSolver:  Solving for k, Initial residual = 0.00842152, Final residual = 0.000609883, No Iterations 6
ExecutionTime = 0.100198 s  ClockTime = 0 s

Time = 33s

smoothSolver:  Solving for Ux, Initial residual = 0.00757252, Final residual = 0.000597653, No Iterations 5
smoothSolver:  Solving for Uy, Initial residual = 0.0317386, Final residual = 0.00301329, No Iterations 5
Pressure gradient source: uncorrected Ubar = 1.00067, pressure gradient = 1.26118
GAMG:  Solving for p, Initial residual = 0.00826217, Final residual = 0.000718179, No Iterations 6
time step continuity errors : sum local = 6.5249e-05, global = -1.01441e-17, cumulative = 2.12987e-16
Pressure gradient source: uncorrected Ubar = 1.00001, pressure gradient = 1.47789
smoothSolver:  Solving for omega, Initial residual = 0.00030962, Final residual = 2.27969e-05, No Iterations 6
smoothSolver:  Solving for k, Initial residual = 0.0079796, Final residual = 0.000571563, No Iterations 6
ExecutionTime = 0.102996 s  ClockTime = 0 s

Time = 34s

smoothSolver:  Solving for Ux, Initial residual = 0.00733221, Final residual = 0.00058022, No Iterations 5
smoothSolver:  Solving for Uy, Initial residual = 0.0334062, Final residual = 0.00332405, No Iterations 5
Pressure gradient source: uncorrected Ubar = 1.00065, pressure gradient = 1.25604
GAMG:  Solving for p, Initial residual = 0.00717335, Final residual = 0.000646716, No Iterations 6
time step continuity errors : sum local = 5.32435e-05, global = 1.18417e-18, cumulative = 2.14171e-16
Pressure gradient source: uncorrected Ubar = 1.00001, pressure gradient = 1.47331
smoothSolver:  Solving for omega, Initial residual = 0.000301781, Final residual = 2.25115e-05, No Iterations 6
smoothSolver:  Solving for k, Initial residual = 0.00768266, Final residual = 0.000555653, No Iterations 6
ExecutionTime = 0.105702 s  ClockTime = 0 s

Time = 35s

smoothSolver:  Solving for Ux, Initial residual = 0.00711612, Final residual = 0.000564839, No Iterations 5
smoothSolver:  Solving for Uy, Initial residual = 0.0326703, Final residual = 0.00320771, No Iterations 5
Pressure gradient source: uncorrected Ubar = 1.00062, pressure gradient = 1.25396
GAMG:  Solving for p, Initial residual = 0.00695126, Final residual = 0.00053367, No Iterations 6
time step continuity errors : sum local = 4.24162e-05, global = 2.52822e-17, cumulative = 2.39454e-16
Pressure gradient source: uncorrected Ubar = 1.00001, pressure gradient = 1.46895
smoothSolver:  Solving for omega, Initial residual = 0.000292579, Final residual = 2.18631e-05, No Iterations 6
smoothSolver:  Solving for k, Initial residual = 0.00745785, Final residual = 0.000538701, No Iterations 6
ExecutionTime = 0.108553 s  ClockTime = 0 s

Time = 36s

smoothSolver:  Solving for Ux, Initial residual = 0.00692079, Final residual = 0.000551564, No Iterations 5
smoothSolver:  Solving for Uy, Initial residual = 0.0340409, Final residual = 0.00336874, No Iterations 5
Pressure gradient source: uncorrected Ubar = 1.00058, pressure gradient = 1.25825
GAMG:  Solving for p, Initial residual = 0.00714371, Final residual = 0.000646839, No Iterations 4
time step continuity errors : sum local = 4.61769e-05, global = -8.7905e-18, cumulative = 2.30663e-16
Pressure gradient source: uncorrected Ubar = 1.00001, pressure gradient = 1.4656
smoothSolver:  Solving for omega, Initial residual = 0.000283829, Final residual = 2.11536e-05, No Iterations 6
smoothSolver:  Solving for k, Initial residual = 0.00729347, Final residual = 0.000536834, No Iterations 6
ExecutionTime = 0.111299 s  ClockTime = 0 s

Time = 37s

smoothSolver:  Solving for Ux, Initial residual = 0.00673813, Final residual = 0.000539274, No Iterations 5
smoothSolver:  Solving for Uy, Initial residual = 0.0330096, Final residual = 0.00216888, No Iterations 6
Pressure gradient source: uncorrected Ubar = 1.00057, pressure gradient = 1.25406
GAMG:  Solving for p, Initial residual = 0.00626559, Final residual = 0.000553558, No Iterations 6
time step continuity errors : sum local = 3.88006e-05, global = -8.22639e-18, cumulative = 2.22437e-16
Pressure gradient source: uncorrected Ubar = 1.00001, pressure gradient = 1.46206
smoothSolver:  Solving for omega, Initial residual = 0.00027564, Final residual = 2.04951e-05, No Iterations 6
smoothSolver:  Solving for k, Initial residual = 0.00714834, Final residual = 0.000528808, No Iterations 6
ExecutionTime = 0.113974 s  ClockTime = 0 s

Time = 38s

smoothSolver:  Solving for Ux, Initial residual = 0.00656828, Final residual = 0.00052805, No Iterations 5
smoothSolver:  Solving for Uy, Initial residual = 0.0351686, Final residual = 0.00232937, No Iterations 6
Pressure gradient source: uncorrected Ubar = 1.00056, pressure gradient = 1.24792
GAMG:  Solving for p, Initial residual = 0.00623447, Final residual = 0.000518306, No Iterations 7
time step continuity errors : sum local = 3.55831e-05, global = 1.66815e-17, cumulative = 2.39118e-16
Pressure gradient source: uncorrected Ubar = 1.00001, pressure gradient = 1.45818
smoothSolver:  Solving for omega, Initial residual = 0.00026816, Final residual = 2.03575e-05, No Iterations 6
smoothSolver:  Solving for k, Initial residual = 0.00709143, Final residual = 0.00052748, No Iterations 6
ExecutionTime = 0.116724 s  ClockTime = 0 s

Time = 39s

smoothSolver:  Solving for Ux, Initial residual = 0.0064118, Final residual = 0.000517529, No Iterations 5
smoothSolver:  Solving for Uy, Initial residual = 0.0355684, Final residual = 0.00237029, No Iterations 6
Pressure gradient source: uncorrected Ubar = 1.00053, pressure gradient = 1.24697
GAMG:  Solving for p, Initial residual = 0.0061393, Final residual = 0.000547189, No Iterations 8
time step continuity errors : sum local = 3.56479e-05, global = -2.53144e-17, cumulative = 2.13804e-16
Pressure gradient source: uncorrected Ubar = 1.00001, pressure gradient = 1.45462
smoothSolver:  Solving for omega, Initial residual = 0.000259538, Final residual = 1.96033e-05, No Iterations 6
smoothSolver:  Solving for k, Initial residual = 0.00699962, Final residual = 0.000521321, No Iterations 6
ExecutionTime = 0.119472 s  ClockTime = 0 s

Time = 40s

smoothSolver:  Solving for Ux, Initial residual = 0.00627059, Final residual = 0.000508844, No Iterations 5
smoothSolver:  Solving for Uy, Initial residual = 0.0367825, Final residual = 0.00243828, No Iterations 6
Pressure gradient source: uncorrected Ubar = 1.00056, pressure gradient = 1.22683
GAMG:  Solving for p, Initial residual = 0.00553001, Final residual = 0.000537708, No Iterations 8
time step continuity errors : sum local = 3.40172e-05, global = -2.19534e-17, cumulative = 1.9185e-16
Pressure gradient source: uncorrected Ubar = 1.00001, pressure gradient = 1.44892
smoothSolver:  Solving for omega, Initial residual = 0.000251532, Final residual = 1.909e-05, No Iterations 6
smoothSolver:  Solving for k, Initial residual = 0.00696586, Final residual = 0.000529393, No Iterations 6
ExecutionTime = 0.122257 s  ClockTime = 0 s

Time = 41s

smoothSolver:  Solving for Ux, Initial residual = 0.00613429, Final residual = 0.000500343, No Iterations 5
smoothSolver:  Solving for Uy, Initial residual = 0.0378753, Final residual = 0.00261587, No Iterations 6
Pressure gradient source: uncorrected Ubar = 1.00057, pressure gradient = 1.21324
GAMG:  Solving for p, Initial residual = 0.00545557, Final residual = 0.00048672, No Iterations 15
time step continuity errors : sum local = 2.92898e-05, global = 4.55534e-18, cumulative = 1.96406e-16
Pressure gradient source: uncorrected Ubar = 1.00002, pressure gradient = 1.44218
smoothSolver:  Solving for omega, Initial residual = 0.000244256, Final residual = 1.87669e-05, No Iterations 6
smoothSolver:  Solving for k, Initial residual = 0.00690989, Final residual = 0.000526755, No Iterations 6
ExecutionTime = 0.125337 s  ClockTime = 0 s

Time = 42s

smoothSolver:  Solving for Ux, Initial residual = 0.006005, Final residual = 0.000492247, No Iterations 5
smoothSolver:  Solving for Uy, Initial residual = 0.0418891, Final residual = 0.00290125, No Iterations 6
Pressure gradient source: uncorrected Ubar = 1.00054, pressure gradient = 1.21418
GAMG:  Solving for p, Initial residual = 0.00527101, Final residual = 0.000508688, No Iterations 15
time step continuity errors : sum local = 3.04071e-05, global = -1.8777e-17, cumulative = 1.77629e-16
Pressure gradient source: uncorrected Ubar = 1.00001, pressure gradient = 1.43636
smoothSolver:  Solving for omega, Initial residual = 0.000237129, Final residual = 1.80942e-05, No Iterations 6
smoothSolver:  Solving for k, Initial residual = 0.00688031, Final residual = 0.000526702, No Iterations 6
ExecutionTime = 0.128405 s  ClockTime = 0 s

Time = 43s

smoothSolver:  Solving for Ux, Initial residual = 0.00588342, Final residual = 0.000484535, No Iterations 5
smoothSolver:  Solving for Uy, Initial residual = 0.0444955, Final residual = 0.0031467, No Iterations 6
Pressure gradient source: uncorrected Ubar = 1.0005, pressure gradient = 1.21726
GAMG:  Solving for p, Initial residual = 0.00557112, Final residual = 0.000556109, No Iterations 13
time step continuity errors : sum local = 3.31465e-05, global = -1.21803e-18, cumulative = 1.76411e-16
Pressure gradient source: uncorrected Ubar = 1.00001, pressure gradient = 1.43167
smoothSolver:  Solving for omega, Initial residual = 0.00023022, Final residual = 1.77542e-05, No Iterations 6
smoothSolver:  Solving for k, Initial residual = 0.00682651, Final residual = 0.000526177, No Iterations 6
ExecutionTime = 0.131511 s  ClockTime = 0 s

Time = 44s

smoothSolver:  Solving for Ux, Initial residual = 0.00577383, Final residual = 0.000477563, No Iterations 5
smoothSolver:  Solving for Uy, Initial residual = 0.0466376, Final residual = 0.00318052, No Iterations 6
Pressure gradient source: uncorrected Ubar = 1.00049, pressure gradient = 1.2133
GAMG:  Solving for p, Initial residual = 0.00563912, Final residual = 0.000512493, No Iterations 13
time step continuity errors : sum local = 3.07505e-05, global = 8.9108e-19, cumulative = 1.77302e-16
Pressure gradient source: uncorrected Ubar = 1.00001, pressure gradient = 1.42708
smoothSolver:  Solving for omega, Initial residual = 0.000223134, Final residual = 1.69518e-05, No Iterations 6
smoothSolver:  Solving for k, Initial residual = 0.00682725, Final residual = 0.000527641, No Iterations 6
ExecutionTime = 0.134503 s  ClockTime = 0 s

Time = 45s

smoothSolver:  Solving for Ux, Initial residual = 0.00566947, Final residual = 0.000471306, No Iterations 5
smoothSolver:  Solving for Uy, Initial residual = 0.0425252, Final residual = 0.00303709, No Iterations 6
Pressure gradient source: uncorrected Ubar = 1.00046, pressure gradient = 1.21759
GAMG:  Solving for p, Initial residual = 0.0048556, Final residual = 0.00046901, No Iterations 10
time step continuity errors : sum local = 2.85325e-05, global = -1.90193e-17, cumulative = 1.58282e-16
Pressure gradient source: uncorrected Ubar = 1.00001, pressure gradient = 1.42368
smoothSolver:  Solving for omega, Initial residual = 0.000216978, Final residual = 1.67904e-05, No Iterations 6
smoothSolver:  Solving for k, Initial residual = 0.00676963, Final residual = 0.000527864, No Iterations 6
ExecutionTime = 0.137352 s  ClockTime = 0 s

Time = 46s

smoothSolver:  Solving for Ux, Initial residual = 0.00556675, Final residual = 0.000464801, No Iterations 5
smoothSolver:  Solving for Uy, Initial residual = 0.0399922, Final residual = 0.00285664, No Iterations 6
Pressure gradient source: uncorrected Ubar = 1.00042, pressure gradient = 1.2251
GAMG:  Solving for p, Initial residual = 0.00456344, Final residual = 0.000398316, No Iterations 12
time step continuity errors : sum local = 2.38307e-05, global = 1.74963e-17, cumulative = 1.75779e-16
Pressure gradient source: uncorrected Ubar = 1, pressure gradient = 1.42174
smoothSolver:  Solving for omega, Initial residual = 0.000210944, Final residual = 1.63864e-05, No Iterations 6
smoothSolver:  Solving for k, Initial residual = 0.0067419, Final residual = 0.000527795, No Iterations 6
ExecutionTime = 0.140292 s  ClockTime = 0 s

Time = 47s

smoothSolver:  Solving for Ux, Initial residual = 0.00546707, Final residual = 0.000458401, No Iterations 5
smoothSolver:  Solving for Uy, Initial residual = 0.0378276, Final residual = 0.00274122, No Iterations 6
Pressure gradient source: uncorrected Ubar = 1.00039, pressure gradient = 1.23421
GAMG:  Solving for p, Initial residual = 0.00411671, Final residual = 0.000366287, No Iterations 12
time step continuity errors : sum local = 2.1599e-05, global = 1.9458e-17, cumulative = 1.95237e-16
Pressure gradient source: uncorrected Ubar = 1, pressure gradient = 1.42134
smoothSolver:  Solving for omega, Initial residual = 0.000205415, Final residual = 1.61126e-05, No Iterations 6
smoothSolver:  Solving for k, Initial residual = 0.00671073, Final residual = 0.000528321, No Iterations 6
ExecutionTime = 0.143241 s  ClockTime = 0 s

Time = 48s

smoothSolver:  Solving for Ux, Initial residual = 0.00537372, Final residual = 0.000452526, No Iterations 5
smoothSolver:  Solving for Uy, Initial residual = 0.03645, Final residual = 0.0026435, No Iterations 6
Pressure gradient source: uncorrected Ubar = 1.00038, pressure gradient = 1.23733
GAMG:  Solving for p, Initial residual = 0.00420443, Final residual = 0.000383532, No Iterations 8
time step continuity errors : sum local = 2.29988e-05, global = -1.81451e-17, cumulative = 1.77092e-16
Pressure gradient source: uncorrected Ubar = 1, pressure gradient = 1.42156
smoothSolver:  Solving for omega, Initial residual = 0.000199688, Final residual = 1.54686e-05, No Iterations 6
smoothSolver:  Solving for k, Initial residual = 0.0066545, Final residual = 0.000522236, No Iterations 6
ExecutionTime = 0.146008 s  ClockTime = 0 s

Time = 49s

smoothSolver:  Solving for Ux, Initial residual = 0.00528525, Final residual = 0.000447117, No Iterations 5
smoothSolver:  Solving for Uy, Initial residual = 0.0338052, Final residual = 0.00248218, No Iterations 6
Pressure gradient source: uncorrected Ubar = 1.00034, pressure gradient = 1.25038
GAMG:  Solving for p, Initial residual = 0.00365983, Final residual = 0.000309793, No Iterations 10
time step continuity errors : sum local = 1.78084e-05, global = -1.49162e-18, cumulative = 1.756e-16
Pressure gradient source: uncorrected Ubar = 0.999996, pressure gradient = 1.42362
smoothSolver:  Solving for omega, Initial residual = 0.000194111, Final residual = 1.51402e-05, No Iterations 6
smoothSolver:  Solving for k, Initial residual = 0.00661617, Final residual = 0.000522685, No Iterations 6
ExecutionTime = 0.148907 s  ClockTime = 0 s

Time = 50s

smoothSolver:  Solving for Ux, Initial residual = 0.00520069, Final residual = 0.000441678, No Iterations 5
smoothSolver:  Solving for Uy, Initial residual = 0.0303417, Final residual = 0.00215914, No Iterations 6
Pressure gradient source: uncorrected Ubar = 1.00033, pressure gradient = 1.25217
GAMG:  Solving for p, Initial residual = 0.00339382, Final residual = 0.000302449, No Iterations 8
time step continuity errors : sum local = 1.74309e-05, global = -2.97499e-18, cumulative = 1.72625e-16
Pressure gradient source: uncorrected Ubar = 0.999996, pressure gradient = 1.42588
smoothSolver:  Solving for omega, Initial residual = 0.000189203, Final residual = 1.47777e-05, No Iterations 6
smoothSolver:  Solving for k, Initial residual = 0.00660906, Final residual = 0.000526274, No Iterations 6
ExecutionTime = 0.151674 s  ClockTime = 0 s

Time = 51s

smoothSolver:  Solving for Ux, Initial residual = 0.00511661, Final residual = 0.00043608, No Iterations 5
smoothSolver:  Solving for Uy, Initial residual = 0.0274969, Final residual = 0.00204048, No Iterations 6
Pressure gradient source: uncorrected Ubar = 1.0003, pressure gradient = 1.26683
GAMG:  Solving for p, Initial residual = 0.00297111, Final residual = 0.00027601, No Iterations 5
time step continuity errors : sum local = 1.2232e-05, global = 1.86872e-17, cumulative = 1.91312e-16
Pressure gradient source: uncorrected Ubar = 0.999992, pressure gradient = 1.43
smoothSolver:  Solving for omega, Initial residual = 0.000183786, Final residual = 1.43899e-05, No Iterations 6
smoothSolver:  Solving for k, Initial residual = 0.00655452, Final residual = 0.000523421, No Iterations 6
ExecutionTime = 0.154281 s  ClockTime = 0 s

Time = 52s

smoothSolver:  Solving for Ux, Initial residual = 0.00503493, Final residual = 0.000430582, No Iterations 5
smoothSolver:  Solving for Uy, Initial residual = 0.0255307, Final residual = 0.00187503, No Iterations 6
Pressure gradient source: uncorrected Ubar = 1.00029, pressure gradient = 1.27489
GAMG:  Solving for p, Initial residual = 0.00307995, Final residual = 0.000274208, No Iterations 5
time step continuity errors : sum local = 1.53214e-05, global = 1.89579e-17, cumulative = 2.1027e-16
Pressure gradient source: uncorrected Ubar = 0.999991, pressure gradient = 1.43494
smoothSolver:  Solving for omega, Initial residual = 0.000179465, Final residual = 1.38037e-05, No Iterations 6
smoothSolver:  Solving for k, Initial residual = 0.00652526, Final residual = 0.00052149, No Iterations 6
ExecutionTime = 0.156906 s  ClockTime = 0 s

Time = 53s

smoothSolver:  Solving for Ux, Initial residual = 0.00495933, Final residual = 0.000425804, No Iterations 5
smoothSolver:  Solving for Uy, Initial residual = 0.0239499, Final residual = 0.00179324, No Iterations 6
Pressure gradient source: uncorrected Ubar = 1.00028, pressure gradient = 1.28154
GAMG:  Solving for p, Initial residual = 0.00305343, Final residual = 0.000285528, No Iterations 6
time step continuity errors : sum local = 1.49285e-05, global = -9.54733e-18, cumulative = 2.00723e-16
Pressure gradient source: uncorrected Ubar = 0.99999, pressure gradient = 1.44043
smoothSolver:  Solving for omega, Initial residual = 0.000174377, Final residual = 1.38156e-05, No Iterations 6
smoothSolver:  Solving for k, Initial residual = 0.00649963, Final residual = 0.000522122, No Iterations 6
ExecutionTime = 0.159608 s  ClockTime = 0 s

Time = 54s

smoothSolver:  Solving for Ux, Initial residual = 0.00488546, Final residual = 0.00042103, No Iterations 5
smoothSolver:  Solving for Uy, Initial residual = 0.0226306, Final residual = 0.00167655, No Iterations 6
Pressure gradient source: uncorrected Ubar = 1.00026, pressure gradient = 1.29145
GAMG:  Solving for p, Initial residual = 0.00268497, Final residual = 0.000233962, No Iterations 8
time step continuity errors : sum local = 1.29164e-05, global = -1.13443e-17, cumulative = 1.89379e-16
Pressure gradient source: uncorrected Ubar = 0.999989, pressure gradient = 1.44685
smoothSolver:  Solving for omega, Initial residual = 0.000170006, Final residual = 1.35278e-05, No Iterations 6
smoothSolver:  Solving for k, Initial residual = 0.00644135, Final residual = 0.000516588, No Iterations 6
ExecutionTime = 0.16235 s  ClockTime = 0 s

Time = 55s

smoothSolver:  Solving for Ux, Initial residual = 0.00481315, Final residual = 0.000416299, No Iterations 5
smoothSolver:  Solving for Uy, Initial residual = 0.021085, Final residual = 0.00157403, No Iterations 6
Pressure gradient source: uncorrected Ubar = 1.00026, pressure gradient = 1.29462
GAMG:  Solving for p, Initial residual = 0.00231468, Final residual = 0.00022135, No Iterations 11
time step continuity errors : sum local = 1.15932e-05, global = 1.96003e-18, cumulative = 1.91339e-16
Pressure gradient source: uncorrected Ubar = 0.999989, pressure gradient = 1.45322
smoothSolver:  Solving for omega, Initial residual = 0.000165251, Final residual = 1.31419e-05, No Iterations 6
smoothSolver:  Solving for k, Initial residual = 0.00641593, Final residual = 0.000518699, No Iterations 6
ExecutionTime = 0.165258 s  ClockTime = 0 s

Time = 56s

smoothSolver:  Solving for Ux, Initial residual = 0.00474393, Final residual = 0.000411448, No Iterations 5
smoothSolver:  Solving for Uy, Initial residual = 0.0203185, Final residual = 0.00149806, No Iterations 6
Pressure gradient source: uncorrected Ubar = 1.00026, pressure gradient = 1.29392
GAMG:  Solving for p, Initial residual = 0.00269005, Final residual = 0.000257847, No Iterations 9
time step continuity errors : sum local = 1.32452e-05, global = 3.44357e-17, cumulative = 2.25774e-16
Pressure gradient source: uncorrected Ubar = 0.99999, pressure gradient = 1.45905
smoothSolver:  Solving for omega, Initial residual = 0.000161183, Final residual = 1.2718e-05, No Iterations 6
smoothSolver:  Solving for k, Initial residual = 0.00640117, Final residual = 0.000519437, No Iterations 6
ExecutionTime = 0.168089 s  ClockTime = 0 s

Time = 57s

smoothSolver:  Solving for Ux, Initial residual = 0.0046762, Final residual = 0.00040685, No Iterations 5
smoothSolver:  Solving for Uy, Initial residual = 0.0193453, Final residual = 0.00145536, No Iterations 6
Pressure gradient source: uncorrected Ubar = 1.00026, pressure gradient = 1.29926
GAMG:  Solving for p, Initial residual = 0.00226462, Final residual = 0.0001928, No Iterations 11
time step continuity errors : sum local = 1.01386e-05, global = 7.6593e-18, cumulative = 2.33434e-16
Pressure gradient source: uncorrected Ubar = 0.99999, pressure gradient = 1.46522
smoothSolver:  Solving for omega, Initial residual = 0.000157218, Final residual = 1.22695e-05, No Iterations 6
smoothSolver:  Solving for k, Initial residual = 0.00634853, Final residual = 0.000513238, No Iterations 6
ExecutionTime = 0.170973 s  ClockTime = 0 s

Time = 58s

smoothSolver:  Solving for Ux, Initial residual = 0.00461383, Final residual = 0.000402812, No Iterations 5
smoothSolver:  Solving for Uy, Initial residual = 0.0185194, Final residual = 0.00140912, No Iterations 6
Pressure gradient source: uncorrected Ubar = 1.00027, pressure gradient = 1.29614
GAMG:  Solving for p, Initial residual = 0.00236468, Final residual = 0.00017641, No Iterations 6
time step continuity errors : sum local = 9.31508e-06, global = 7.54791e-18, cumulative = 2.40981e-16
Pressure gradient source: uncorrected Ubar = 0.999992, pressure gradient = 1.47058
smoothSolver:  Solving for omega, Initial residual = 0.000153884, Final residual = 1.19928e-05, No Iterations 6
smoothSolver:  Solving for k, Initial residual = 0.00634045, Final residual = 0.000518059, No Iterations 6
ExecutionTime = 0.173687 s  ClockTime = 0 s

Time = 59s

smoothSolver:  Solving for Ux, Initial residual = 0.00455255, Final residual = 0.000398804, No Iterations 5
smoothSolver:  Solving for Uy, Initial residual = 0.0156224, Final residual = 0.00118114, No Iterations 6
Pressure gradient source: uncorrected Ubar = 1.00027, pressure gradient = 1.29422
GAMG:  Solving for p, Initial residual = 0.00192892, Final residual = 0.000176196, No Iterations 5
time step continuity errors : sum local = 8.98217e-06, global = -1.81244e-17, cumulative = 2.22857e-16
Pressure gradient source: uncorrected Ubar = 0.999993, pressure gradient = 1.47538
smoothSolver:  Solving for omega, Initial residual = 0.000150393, Final residual = 1.17871e-05, No Iterations 6
smoothSolver:  Solving for k, Initial residual = 0.00630008, Final residual = 0.00051356, No Iterations 6
ExecutionTime = 0.176309 s  ClockTime = 0 s

Time = 60s

smoothSolver:  Solving for Ux, Initial residual = 0.00449217, Final residual = 0.000394769, No Iterations 5
smoothSolver:  Solving for Uy, Initial residual = 0.0140147, Final residual = 0.00107163, No Iterations 6
Pressure gradient source: uncorrected Ubar = 1.00027, pressure gradient = 1.29384
GAMG:  Solving for p, Initial residual = 0.00190684, Final residual = 0.000156295, No Iterations 6
time step continuity errors : sum local = 8.2737e-06, global = -8.66049e-18, cumulative = 2.14197e-16
Pressure gradient source: uncorrected Ubar = 0.999993, pressure gradient = 1.4799
smoothSolver:  Solving for omega, Initial residual = 0.000147106, Final residual = 1.15211e-05, No Iterations 6
smoothSolver:  Solving for k, Initial residual = 0.00626404, Final residual = 0.00051163, No Iterations 6
ExecutionTime = 0.178998 s  ClockTime = 0 s

Time = 61s

smoothSolver:  Solving for Ux, Initial residual = 0.00443471, Final residual = 0.000390864, No Iterations 5
smoothSolver:  Solving for Uy, Initial residual = 0.0134519, Final residual = 0.000984274, No Iterations 6
Pressure gradient source: uncorrected Ubar = 1.00028, pressure gradient = 1.28566
GAMG:  Solving for p, Initial residual = 0.00205675, Final residual = 0.000197075, No Iterations 5
time step continuity errors : sum local = 9.45001e-06, global = 1.09051e-17, cumulative = 2.25102e-16
Pressure gradient source: uncorrected Ubar = 0.999995, pressure gradient = 1.48314
smoothSolver:  Solving for omega, Initial residual = 0.000143657, Final residual = 1.12385e-05, No Iterations 6
smoothSolver:  Solving for k, Initial residual = 0.00622064, Final residual = 0.000508905, No Iterations 6
ExecutionTime = 0.181614 s  ClockTime = 0 s

Time = 62s

smoothSolver:  Solving for Ux, Initial residual = 0.00438001, Final residual = 0.000387245, No Iterations 5
smoothSolver:  Solving for Uy, Initial residual = 0.0126605, Final residual = 0.000954171, No Iterations 6
Pressure gradient source: uncorrected Ubar = 1.00029, pressure gradient = 1.27692
GAMG:  Solving for p, Initial residual = 0.00169946, Final residual = 0.000158204, No Iterations 9
time step continuity errors : sum local = 7.49609e-06, global = -7.4666e-19, cumulative = 2.24355e-16
Pressure gradient source: uncorrected Ubar = 0.999997, pressure gradient = 1.48516
smoothSolver:  Solving for omega, Initial residual = 0.000140279, Final residual = 1.08794e-05, No Iterations 6
smoothSolver:  Solving for k, Initial residual = 0.00622205, Final residual = 0.000512159, No Iterations 6
ExecutionTime = 0.184504 s  ClockTime = 0 s

Time = 63s

smoothSolver:  Solving for Ux, Initial residual = 0.00432929, Final residual = 0.000383994, No Iterations 5
smoothSolver:  Solving for Uy, Initial residual = 0.011791, Final residual = 0.000872283, No Iterations 6
Pressure gradient source: uncorrected Ubar = 1.0003, pressure gradient = 1.27042
GAMG:  Solving for p, Initial residual = 0.00170355, Final residual = 0.000128994, No Iterations 4
time step continuity errors : sum local = 6.37738e-06, global = -2.01297e-17, cumulative = 2.04225e-16
Pressure gradient source: uncorrected Ubar = 0.999998, pressure gradient = 1.48642
smoothSolver:  Solving for omega, Initial residual = 0.000137184, Final residual = 1.07783e-05, No Iterations 6
smoothSolver:  Solving for k, Initial residual = 0.00618714, Final residual = 0.000508232, No Iterations 6
ExecutionTime = 0.187135 s  ClockTime = 0 s

Time = 64s

smoothSolver:  Solving for Ux, Initial residual = 0.00427918, Final residual = 0.000380706, No Iterations 5
smoothSolver:  Solving for Uy, Initial residual = 0.0108712, Final residual = 0.000813838, No Iterations 6
Pressure gradient source: uncorrected Ubar = 1.0003, pressure gradient = 1.26436
GAMG:  Solving for p, Initial residual = 0.00152637, Final residual = 0.000126826, No Iterations 4
time step continuity errors : sum local = 6.33385e-06, global = 1.52555e-17, cumulative = 2.19481e-16
Pressure gradient source: uncorrected Ubar = 0.999999, pressure gradient = 1.48706
smoothSolver:  Solving for omega, Initial residual = 0.000134196, Final residual = 1.05818e-05, No Iterations 6
smoothSolver:  Solving for k, Initial residual = 0.00615519, Final residual = 0.000506758, No Iterations 6
ExecutionTime = 0.189796 s  ClockTime = 0 s

Time = 65s

smoothSolver:  Solving for Ux, Initial residual = 0.00423064, Final residual = 0.000377512, No Iterations 5
smoothSolver:  Solving for Uy, Initial residual = 0.0109153, Final residual = 0.000823814, No Iterations 6
Pressure gradient source: uncorrected Ubar = 1.0003, pressure gradient = 1.25454
GAMG:  Solving for p, Initial residual = 0.00152175, Final residual = 0.000136011, No Iterations 5
time step continuity errors : sum local = 6.31872e-06, global = -1.82891e-17, cumulative = 2.01192e-16
Pressure gradient source: uncorrected Ubar = 1, pressure gradient = 1.48664
smoothSolver:  Solving for omega, Initial residual = 0.000131104, Final residual = 1.03008e-05, No Iterations 6
smoothSolver:  Solving for k, Initial residual = 0.00612802, Final residual = 0.000505506, No Iterations 6
ExecutionTime = 0.192492 s  ClockTime = 0 s

Time = 66s

smoothSolver:  Solving for Ux, Initial residual = 0.00418326, Final residual = 0.000374377, No Iterations 5
smoothSolver:  Solving for Uy, Initial residual = 0.0106405, Final residual = 0.000805575, No Iterations 6
Pressure gradient source: uncorrected Ubar = 1.00031, pressure gradient = 1.24399
GAMG:  Solving for p, Initial residual = 0.0015154, Final residual = 0.000120198, No Iterations 6
time step continuity errors : sum local = 5.90245e-06, global = 4.50706e-18, cumulative = 2.05699e-16
Pressure gradient source: uncorrected Ubar = 1, pressure gradient = 1.48517
smoothSolver:  Solving for omega, Initial residual = 0.000128552, Final residual = 1.01101e-05, No Iterations 6
smoothSolver:  Solving for k, Initial residual = 0.00609511, Final residual = 0.000503496, No Iterations 6
ExecutionTime = 0.195173 s  ClockTime = 0 s

Time = 67s

smoothSolver:  Solving for Ux, Initial residual = 0.00413817, Final residual = 0.000371451, No Iterations 5
smoothSolver:  Solving for Uy, Initial residual = 0.010941, Final residual = 0.000801834, No Iterations 6
Pressure gradient source: uncorrected Ubar = 1.00032, pressure gradient = 1.22955
GAMG:  Solving for p, Initial residual = 0.00162207, Final residual = 0.000148176, No Iterations 5
time step continuity errors : sum local = 6.39921e-06, global = 7.8016e-18, cumulative = 2.135e-16
Pressure gradient source: uncorrected Ubar = 1, pressure gradient = 1.48228
smoothSolver:  Solving for omega, Initial residual = 0.000126155, Final residual = 9.89646e-06, No Iterations 6
smoothSolver:  Solving for k, Initial residual = 0.00607394, Final residual = 0.000502626, No Iterations 6
ExecutionTime = 0.197833 s  ClockTime = 0 s

Time = 68s

smoothSolver:  Solving for Ux, Initial residual = 0.00409624, Final residual = 0.00036879, No Iterations 5
smoothSolver:  Solving for Uy, Initial residual = 0.0100002, Final residual = 0.000757163, No Iterations 6
Pressure gradient source: uncorrected Ubar = 1.00032, pressure gradient = 1.21648
GAMG:  Solving for p, Initial residual = 0.00169322, Final residual = 0.00016863, No Iterations 5
time step continuity errors : sum local = 6.58264e-06, global = 4.82385e-18, cumulative = 2.18324e-16
Pressure gradient source: uncorrected Ubar = 1, pressure gradient = 1.47829
smoothSolver:  Solving for omega, Initial residual = 0.000124023, Final residual = 9.6537e-06, No Iterations 6
smoothSolver:  Solving for k, Initial residual = 0.00604134, Final residual = 0.000501178, No Iterations 6
ExecutionTime = 0.200457 s  ClockTime = 0 s

Time = 69s

smoothSolver:  Solving for Ux, Initial residual = 0.00405585, Final residual = 0.000366247, No Iterations 5
smoothSolver:  Solving for Uy, Initial residual = 0.00912529, Final residual = 0.000688195, No Iterations 6
Pressure gradient source: uncorrected Ubar = 1.00033, pressure gradient = 1.20343
GAMG:  Solving for p, Initial residual = 0.00138648, Final residual = 9.34758e-05, No Iterations 4
time step continuity errors : sum local = 3.64577e-06, global = -7.86322e-18, cumulative = 2.10461e-16
Pressure gradient source: uncorrected Ubar = 1.00001, pressure gradient = 1.47333
smoothSolver:  Solving for omega, Initial residual = 0.000122293, Final residual = 9.63055e-06, No Iterations 6
smoothSolver:  Solving for k, Initial residual = 0.0060182, Final residual = 0.000499328, No Iterations 6
ExecutionTime = 0.203027 s  ClockTime = 0 s

Time = 70s

smoothSolver:  Solving for Ux, Initial residual = 0.00401584, Final residual = 0.000363682, No Iterations 5
smoothSolver:  Solving for Uy, Initial residual = 0.0083666, Final residual = 0.000627831, No Iterations 6
Pressure gradient source: uncorrected Ubar = 1.00033, pressure gradient = 1.18959
GAMG:  Solving for p, Initial residual = 0.0015203, Final residual = 0.000113419, No Iterations 4
time step continuity errors : sum local = 4.40988e-06, global = 1.82574e-17, cumulative = 2.28718e-16
Pressure gradient source: uncorrected Ubar = 1.00001, pressure gradient = 1.4674
smoothSolver:  Solving for omega, Initial residual = 0.000120427, Final residual = 9.46963e-06, No Iterations 6
smoothSolver:  Solving for k, Initial residual = 0.00598992, Final residual = 0.000497823, No Iterations 6
ExecutionTime = 0.205598 s  ClockTime = 0 s

Time = 71s

smoothSolver:  Solving for Ux, Initial residual = 0.00397697, Final residual = 0.000361204, No Iterations 5
smoothSolver:  Solving for Uy, Initial residual = 0.00774511, Final residual = 0.000589534, No Iterations 6
Pressure gradient source: uncorrected Ubar = 1.00033, pressure gradient = 1.1744
GAMG:  Solving for p, Initial residual = 0.00132581, Final residual = 0.000113153, No Iterations 4
time step continuity errors : sum local = 4.28166e-06, global = 8.76721e-18, cumulative = 2.37486e-16
Pressure gradient source: uncorrected Ubar = 1.00001, pressure gradient = 1.46042
smoothSolver:  Solving for omega, Initial residual = 0.000118407, Final residual = 9.27265e-06, No Iterations 6
smoothSolver:  Solving for k, Initial residual = 0.00594398, Final residual = 0.000493199, No Iterations 6
ExecutionTime = 0.208197 s  ClockTime = 0 s

Time = 72s

smoothSolver:  Solving for Ux, Initial residual = 0.0039392, Final residual = 0.000358831, No Iterations 5
smoothSolver:  Solving for Uy, Initial residual = 0.00804634, Final residual = 0.00059333, No Iterations 6
Pressure gradient source: uncorrected Ubar = 1.00034, pressure gradient = 1.15997
GAMG:  Solving for p, Initial residual = 0.00146022, Final residual = 0.000138552, No Iterations 3
time step continuity errors : sum local = 4.59118e-06, global = -8.81846e-18, cumulative = 2.28667e-16
Pressure gradient source: uncorrected Ubar = 1.00001, pressure gradient = 1.45261
smoothSolver:  Solving for omega, Initial residual = 0.000116376, Final residual = 9.14492e-06, No Iterations 6
smoothSolver:  Solving for k, Initial residual = 0.00593091, Final residual = 0.000494528, No Iterations 6
ExecutionTime = 0.21074 s  ClockTime = 0 s

Time = 73s

smoothSolver:  Solving for Ux, Initial residual = 0.00390372, Final residual = 0.000356692, No Iterations 5
smoothSolver:  Solving for Uy, Initial residual = 0.00767039, Final residual = 0.000583692, No Iterations 6
Pressure gradient source: uncorrected Ubar = 1.00034, pressure gradient = 1.13844
GAMG:  Solving for p, Initial residual = 0.00161887, Final residual = 8.8521e-05, No Iterations 4
time step continuity errors : sum local = 2.69146e-06, global = -1.52953e-17, cumulative = 2.13372e-16
Pressure gradient source: uncorrected Ubar = 1.00001, pressure gradient = 1.44312
smoothSolver:  Solving for omega, Initial residual = 0.000114458, Final residual = 8.91955e-06, No Iterations 6
smoothSolver:  Solving for k, Initial residual = 0.00589676, Final residual = 0.000492196, No Iterations 6
ExecutionTime = 0.213325 s  ClockTime = 0 s

Time = 74s

smoothSolver:  Solving for Ux, Initial residual = 0.00387045, Final residual = 0.000354707, No Iterations 5
smoothSolver:  Solving for Uy, Initial residual = 0.00700577, Final residual = 0.000526007, No Iterations 6
Pressure gradient source: uncorrected Ubar = 1.00034, pressure gradient = 1.12238
GAMG:  Solving for p, Initial residual = 0.00156843, Final residual = 0.000107452, No Iterations 5
time step continuity errors : sum local = 2.79449e-06, global = -2.3234e-17, cumulative = 1.90138e-16
Pressure gradient source: uncorrected Ubar = 1.00001, pressure gradient = 1.43288
smoothSolver:  Solving for omega, Initial residual = 0.000112583, Final residual = 8.84355e-06, No Iterations 6
smoothSolver:  Solving for k, Initial residual = 0.00587225, Final residual = 0.00049083, No Iterations 6
ExecutionTime = 0.215948 s  ClockTime = 0 s

Time = 75s

smoothSolver:  Solving for Ux, Initial residual = 0.0038381, Final residual = 0.000352731, No Iterations 5
smoothSolver:  Solving for Uy, Initial residual = 0.00609036, Final residual = 0.000454447, No Iterations 6
Pressure gradient source: uncorrected Ubar = 1.00035, pressure gradient = 1.10463
GAMG:  Solving for p, Initial residual = 0.00128261, Final residual = 5.63294e-05, No Iterations 4
time step continuity errors : sum local = 1.53212e-06, global = 2.01647e-18, cumulative = 1.92154e-16
Pressure gradient source: uncorrected Ubar = 1.00001, pressure gradient = 1.42174
smoothSolver:  Solving for omega, Initial residual = 0.000110678, Final residual = 8.68476e-06, No Iterations 6
smoothSolver:  Solving for k, Initial residual = 0.00583431, Final residual = 0.000487312, No Iterations 6
ExecutionTime = 0.218572 s  ClockTime = 0 s

Time = 76s

smoothSolver:  Solving for Ux, Initial residual = 0.00380694, Final residual = 0.000350868, No Iterations 5
smoothSolver:  Solving for Uy, Initial residual = 0.00579504, Final residual = 0.000443591, No Iterations 6
Pressure gradient source: uncorrected Ubar = 1.00034, pressure gradient = 1.08746
GAMG:  Solving for p, Initial residual = 0.00114005, Final residual = 6.65162e-05, No Iterations 3
time step continuity errors : sum local = 1.74825e-06, global = 1.13659e-17, cumulative = 2.0352e-16
Pressure gradient source: uncorrected Ubar = 1.00001, pressure gradient = 1.40988
smoothSolver:  Solving for omega, Initial residual = 0.000108742, Final residual = 8.52284e-06, No Iterations 6
smoothSolver:  Solving for k, Initial residual = 0.0058098, Final residual = 0.00048702, No Iterations 6
ExecutionTime = 0.22116 s  ClockTime = 0 s

Time = 77s

smoothSolver:  Solving for Ux, Initial residual = 0.00377638, Final residual = 0.000349044, No Iterations 5
smoothSolver:  Solving for Uy, Initial residual = 0.00555722, Final residual = 0.000428331, No Iterations 6
Pressure gradient source: uncorrected Ubar = 1.00035, pressure gradient = 1.06594
GAMG:  Solving for p, Initial residual = 0.000998691, Final residual = 4.5233e-05, No Iterations 4
time step continuity errors : sum local = 1.16748e-06, global = -2.87096e-18, cumulative = 2.00649e-16
Pressure gradient source: uncorrected Ubar = 1.00001, pressure gradient = 1.3968
smoothSolver:  Solving for omega, Initial residual = 0.000106995, Final residual = 8.32145e-06, No Iterations 6
smoothSolver:  Solving for k, Initial residual = 0.00578237, Final residual = 0.0004862, No Iterations 6
ExecutionTime = 0.223733 s  ClockTime = 0 s

Time = 78s

smoothSolver:  Solving for Ux, Initial residual = 0.00374732, Final residual = 0.000347416, No Iterations 5
smoothSolver:  Solving for Uy, Initial residual = 0.00582566, Final residual = 0.000418172, No Iterations 6
Pressure gradient source: uncorrected Ubar = 1.00035, pressure gradient = 1.04201
GAMG:  Solving for p, Initial residual = 0.00120877, Final residual = 0.000104247, No Iterations 4
time step continuity errors : sum local = 2.64699e-06, global = -2.38994e-17, cumulative = 1.7675e-16
Pressure gradient source: uncorrected Ubar = 1.00001, pressure gradient = 1.38231
smoothSolver:  Solving for omega, Initial residual = 0.000105266, Final residual = 8.26861e-06, No Iterations 6
smoothSolver:  Solving for k, Initial residual = 0.00574265, Final residual = 0.000482118, No Iterations 6
ExecutionTime = 0.226314 s  ClockTime = 0 s

Time = 79s

smoothSolver:  Solving for Ux, Initial residual = 0.00371951, Final residual = 0.000345865, No Iterations 5
smoothSolver:  Solving for Uy, Initial residual = 0.00526384, Final residual = 0.000384844, No Iterations 6
Pressure gradient source: uncorrected Ubar = 1.00035, pressure gradient = 1.02696
GAMG:  Solving for p, Initial residual = 0.00142047, Final residual = 0.000121329, No Iterations 3
time step continuity errors : sum local = 3.45061e-06, global = 7.7873e-18, cumulative = 1.84537e-16
Pressure gradient source: uncorrected Ubar = 1.00001, pressure gradient = 1.36781
smoothSolver:  Solving for omega, Initial residual = 0.000103696, Final residual = 8.18025e-06, No Iterations 6
smoothSolver:  Solving for k, Initial residual = 0.00570451, Final residual = 0.000478483, No Iterations 6
ExecutionTime = 0.228849 s  ClockTime = 0 s

Time = 80s

smoothSolver:  Solving for Ux, Initial residual = 0.00369336, Final residual = 0.000344406, No Iterations 5
smoothSolver:  Solving for Uy, Initial residual = 0.00498835, Final residual = 0.000369334, No Iterations 6
Pressure gradient source: uncorrected Ubar = 1.00034, pressure gradient = 1.00841
GAMG:  Solving for p, Initial residual = 0.00131585, Final residual = 6.79351e-05, No Iterations 3
time step continuity errors : sum local = 1.82656e-06, global = -1.37071e-17, cumulative = 1.7083e-16
Pressure gradient source: uncorrected Ubar = 1.00001, pressure gradient = 1.3528
smoothSolver:  Solving for omega, Initial residual = 0.000102123, Final residual = 8.03942e-06, No Iterations 6
smoothSolver:  Solving for k, Initial residual = 0.00568155, Final residual = 0.000477954, No Iterations 6
ExecutionTime = 0.231372 s  ClockTime = 0 s

Time = 81s

smoothSolver:  Solving for Ux, Initial residual = 0.00366807, Final residual = 0.000342983, No Iterations 5
smoothSolver:  Solving for Uy, Initial residual = 0.00472451, Final residual = 0.000351102, No Iterations 6
Pressure gradient source: uncorrected Ubar = 1.00035, pressure gradient = 0.984208
GAMG:  Solving for p, Initial residual = 0.00109602, Final residual = 6.30875e-05, No Iterations 3
time step continuity errors : sum local = 1.43386e-06, global = -1.23772e-17, cumulative = 1.58453e-16
Pressure gradient source: uncorrected Ubar = 1.00002, pressure gradient = 1.33658
smoothSolver:  Solving for omega, Initial residual = 0.000100606, Final residual = 7.87569e-06, No Iterations 6
smoothSolver:  Solving for k, Initial residual = 0.00565439, Final residual = 0.000476543, No Iterations 6
ExecutionTime = 0.233902 s  ClockTime = 0 s

Time = 82s

smoothSolver:  Solving for Ux, Initial residual = 0.00364396, Final residual = 0.000341664, No Iterations 5
smoothSolver:  Solving for Uy, Initial residual = 0.00446741, Final residual = 0.000337292, No Iterations 6
Pressure gradient source: uncorrected Ubar = 1.00035, pressure gradient = 0.962259
GAMG:  Solving for p, Initial residual = 0.00113501, Final residual = 9.42025e-05, No Iterations 5
time step continuity errors : sum local = 2.20672e-06, global = 9.03816e-18, cumulative = 1.67491e-16
Pressure gradient source: uncorrected Ubar = 1.00002, pressure gradient = 1.3196
smoothSolver:  Solving for omega, Initial residual = 9.9256e-05, Final residual = 7.73935e-06, No Iterations 6
smoothSolver:  Solving for k, Initial residual = 0.00561562, Final residual = 0.000473122, No Iterations 6
ExecutionTime = 0.236544 s  ClockTime = 0 s

Time = 83s

smoothSolver:  Solving for Ux, Initial residual = 0.0036204, Final residual = 0.000340357, No Iterations 5
smoothSolver:  Solving for Uy, Initial residual = 0.00429803, Final residual = 0.000291794, No Iterations 6
Pressure gradient source: uncorrected Ubar = 1.00034, pressure gradient = 0.942389
GAMG:  Solving for p, Initial residual = 0.00133152, Final residual = 0.000129219, No Iterations 7
time step continuity errors : sum local = 3.60853e-06, global = 3.16165e-18, cumulative = 1.70653e-16
Pressure gradient source: uncorrected Ubar = 1.00002, pressure gradient = 1.30225
smoothSolver:  Solving for omega, Initial residual = 9.79821e-05, Final residual = 7.64459e-06, No Iterations 6
smoothSolver:  Solving for k, Initial residual = 0.00558369, Final residual = 0.000470882, No Iterations 6
ExecutionTime = 0.239249 s  ClockTime = 0 s

Time = 84s

smoothSolver:  Solving for Ux, Initial residual = 0.00359751, Final residual = 0.000339148, No Iterations 5
smoothSolver:  Solving for Uy, Initial residual = 0.00416853, Final residual = 0.000297271, No Iterations 6
Pressure gradient source: uncorrected Ubar = 1.00034, pressure gradient = 0.921079
GAMG:  Solving for p, Initial residual = 0.00115276, Final residual = 9.78326e-05, No Iterations 10
time step continuity errors : sum local = 3.22251e-06, global = -1.08729e-17, cumulative = 1.5978e-16
Pressure gradient source: uncorrected Ubar = 1.00002, pressure gradient = 1.28437
smoothSolver:  Solving for omega, Initial residual = 9.69251e-05, Final residual = 7.57503e-06, No Iterations 6
smoothSolver:  Solving for k, Initial residual = 0.0055535, Final residual = 0.000469324, No Iterations 6
ExecutionTime = 0.242087 s  ClockTime = 0 s

Time = 85s

smoothSolver:  Solving for Ux, Initial residual = 0.00357579, Final residual = 0.000338132, No Iterations 5
smoothSolver:  Solving for Uy, Initial residual = 0.00368578, Final residual = 0.00027264, No Iterations 6
Pressure gradient source: uncorrected Ubar = 1.00034, pressure gradient = 0.89935
GAMG:  Solving for p, Initial residual = 0.00138535, Final residual = 0.000134447, No Iterations 7
time step continuity errors : sum local = 3.69374e-06, global = 5.50571e-21, cumulative = 1.59785e-16
Pressure gradient source: uncorrected Ubar = 1.00002, pressure gradient = 1.26598
smoothSolver:  Solving for omega, Initial residual = 9.566e-05, Final residual = 7.40092e-06, No Iterations 6
smoothSolver:  Solving for k, Initial residual = 0.00552968, Final residual = 0.000468484, No Iterations 6
ExecutionTime = 0.244784 s  ClockTime = 0 s

Time = 86s

smoothSolver:  Solving for Ux, Initial residual = 0.00355576, Final residual = 0.00033715, No Iterations 5
smoothSolver:  Solving for Uy, Initial residual = 0.00319393, Final residual = 0.000220793, No Iterations 6
Pressure gradient source: uncorrected Ubar = 1.00034, pressure gradient = 0.874235
GAMG:  Solving for p, Initial residual = 0.00117034, Final residual = 8.63956e-05, No Iterations 5
time step continuity errors : sum local = 1.98627e-06, global = -2.89481e-17, cumulative = 1.30837e-16
Pressure gradient source: uncorrected Ubar = 1.00002, pressure gradient = 1.24666
smoothSolver:  Solving for omega, Initial residual = 9.46981e-05, Final residual = 7.39594e-06, No Iterations 6
smoothSolver:  Solving for k, Initial residual = 0.00549334, Final residual = 0.000464711, No Iterations 6
ExecutionTime = 0.247423 s  ClockTime = 0 s

Time = 87s

smoothSolver:  Solving for Ux, Initial residual = 0.00353617, Final residual = 0.000336181, No Iterations 5
smoothSolver:  Solving for Uy, Initial residual = 0.00292402, Final residual = 0.000209372, No Iterations 6
Pressure gradient source: uncorrected Ubar = 1.00034, pressure gradient = 0.856012
GAMG:  Solving for p, Initial residual = 0.00104037, Final residual = 8.30645e-05, No Iterations 4
time step continuity errors : sum local = 1.60482e-06, global = -5.4497e-18, cumulative = 1.25387e-16
Pressure gradient source: uncorrected Ubar = 1.00002, pressure gradient = 1.2275
smoothSolver:  Solving for omega, Initial residual = 9.36104e-05, Final residual = 7.26769e-06, No Iterations 6
smoothSolver:  Solving for k, Initial residual = 0.00546398, Final residual = 0.000462561, No Iterations 6
ExecutionTime = 0.249988 s  ClockTime = 0 s

Time = 88s

smoothSolver:  Solving for Ux, Initial residual = 0.00351644, Final residual = 0.000335228, No Iterations 5
smoothSolver:  Solving for Uy, Initial residual = 0.00322239, Final residual = 0.000242372, No Iterations 6
Pressure gradient source: uncorrected Ubar = 1.00033, pressure gradient = 0.836265
GAMG:  Solving for p, Initial residual = 0.000928284, Final residual = 7.72122e-05, No Iterations 3
time step continuity errors : sum local = 1.58108e-06, global = 1.77382e-18, cumulative = 1.27161e-16
Pressure gradient source: uncorrected Ubar = 1.00002, pressure gradient = 1.20826
smoothSolver:  Solving for omega, Initial residual = 9.27925e-05, Final residual = 7.20768e-06, No Iterations 6
smoothSolver:  Solving for k, Initial residual = 0.00542721, Final residual = 0.000459861, No Iterations 6
ExecutionTime = 0.252539 s  ClockTime = 0 s

Time = 89s

smoothSolver:  Solving for Ux, Initial residual = 0.00349767, Final residual = 0.000334234, No Iterations 5
smoothSolver:  Solving for Uy, Initial residual = 0.00335237, Final residual = 0.000227373, No Iterations 6
Pressure gradient source: uncorrected Ubar = 1.00033, pressure gradient = 0.814442
GAMG:  Solving for p, Initial residual = 0.00125866, Final residual = 0.000107763, No Iterations 4
time step continuity errors : sum local = 2.1674e-06, global = -2.34801e-17, cumulative = 1.03681e-16
Pressure gradient source: uncorrected Ubar = 1.00002, pressure gradient = 1.18865
[...]
smoothSolver:  Solving for omega, Initial residual = 8.08965e-06, Final residual = 8.08965e-06, No Iterations 0
smoothSolver:  Solving for k, Initial residual = 2.45491e-05, Final residual = 9.19989e-06, No Iterations 2
ExecutionTime = 6.61886 s  ClockTime = 7 s

Time = 2408s

smoothSolver:  Solving for Ux, Initial residual = 4.85292e-06, Final residual = 4.85292e-06, No Iterations 0
smoothSolver:  Solving for Uy, Initial residual = 0.000136769, Final residual = 9.97619e-06, No Iterations 4
Pressure gradient source: uncorrected Ubar = 1, pressure gradient = 0.00370522
GAMG:  Solving for p, Initial residual = 4.15447e-05, Final residual = 3.97109e-06, No Iterations 8
time step continuity errors : sum local = 6.32405e-11, global = 6.12205e-18, cumulative = 1.34801e-16
Pressure gradient source: uncorrected Ubar = 1, pressure gradient = 0.0037052
smoothSolver:  Solving for omega, Initial residual = 8.08965e-06, Final residual = 8.08965e-06, No Iterations 0
smoothSolver:  Solving for k, Initial residual = 2.44152e-05, Final residual = 9.14948e-06, No Iterations 2
ExecutionTime = 6.62144 s  ClockTime = 7 s

Time = 2409s

smoothSolver:  Solving for Ux, Initial residual = 4.84888e-06, Final residual = 4.84888e-06, No Iterations 0
smoothSolver:  Solving for Uy, Initial residual = 0.000138072, Final residual = 1.00023e-05, No Iterations 4
Pressure gradient source: uncorrected Ubar = 1, pressure gradient = 0.0037052
GAMG:  Solving for p, Initial residual = 4.17434e-05, Final residual = 4.00078e-06, No Iterations 8
time step continuity errors : sum local = 6.37541e-11, global = 4.7558e-18, cumulative = 1.39557e-16
Pressure gradient source: uncorrected Ubar = 1, pressure gradient = 0.00370517
smoothSolver:  Solving for omega, Initial residual = 8.08966e-06, Final residual = 8.08966e-06, No Iterations 0
smoothSolver:  Solving for k, Initial residual = 2.42813e-05, Final residual = 9.09905e-06, No Iterations 2
ExecutionTime = 6.62403 s  ClockTime = 7 s

Time = 2410s

smoothSolver:  Solving for Ux, Initial residual = 4.84479e-06, Final residual = 4.84479e-06, No Iterations 0
smoothSolver:  Solving for Uy, Initial residual = 0.000138471, Final residual = 1.00093e-05, No Iterations 4
Pressure gradient source: uncorrected Ubar = 1, pressure gradient = 0.00370517
GAMG:  Solving for p, Initial residual = 4.18466e-05, Final residual = 3.76743e-06, No Iterations 9
time step continuity errors : sum local = 6.00867e-11, global = -5.73576e-19, cumulative = 1.38983e-16
Pressure gradient source: uncorrected Ubar = 1, pressure gradient = 0.00370515
smoothSolver:  Solving for omega, Initial residual = 8.08966e-06, Final residual = 8.08966e-06, No Iterations 0
smoothSolver:  Solving for k, Initial residual = 2.41474e-05, Final residual = 9.04862e-06, No Iterations 2
ExecutionTime = 6.62666 s  ClockTime = 7 s

Time = 2411s

smoothSolver:  Solving for Ux, Initial residual = 4.84068e-06, Final residual = 4.84068e-06, No Iterations 0
smoothSolver:  Solving for Uy, Initial residual = 0.0001386, Final residual = 9.96732e-06, No Iterations 4
Pressure gradient source: uncorrected Ubar = 1, pressure gradient = 0.00370515
GAMG:  Solving for p, Initial residual = 4.19471e-05, Final residual = 3.8885e-06, No Iterations 8
time step continuity errors : sum local = 6.23572e-11, global = -5.21549e-19, cumulative = 1.38462e-16
Pressure gradient source: uncorrected Ubar = 1, pressure gradient = 0.00370513
smoothSolver:  Solving for omega, Initial residual = 8.08966e-06, Final residual = 8.08966e-06, No Iterations 0
smoothSolver:  Solving for k, Initial residual = 2.40135e-05, Final residual = 8.99818e-06, No Iterations 2
ExecutionTime = 6.62924 s  ClockTime = 7 s

Time = 2412s

smoothSolver:  Solving for Ux, Initial residual = 4.83678e-06, Final residual = 4.83678e-06, No Iterations 0
smoothSolver:  Solving for Uy, Initial residual = 0.000138244, Final residual = 9.96988e-06, No Iterations 4
Pressure gradient source: uncorrected Ubar = 1, pressure gradient = 0.00370513
GAMG:  Solving for p, Initial residual = 4.17735e-05, Final residual = 3.91319e-06, No Iterations 8
time step continuity errors : sum local = 6.2901e-11, global = 3.12535e-18, cumulative = 1.41587e-16
Pressure gradient source: uncorrected Ubar = 1, pressure gradient = 0.00370511
smoothSolver:  Solving for omega, Initial residual = 8.08966e-06, Final residual = 8.08966e-06, No Iterations 0
smoothSolver:  Solving for k, Initial residual = 2.38796e-05, Final residual = 8.94774e-06, No Iterations 2
ExecutionTime = 6.63183 s  ClockTime = 7 s

Time = 2413s

smoothSolver:  Solving for Ux, Initial residual = 4.83287e-06, Final residual = 4.83287e-06, No Iterations 0
smoothSolver:  Solving for Uy, Initial residual = 0.000137705, Final residual = 9.88405e-06, No Iterations 4
Pressure gradient source: uncorrected Ubar = 1, pressure gradient = 0.00370511
GAMG:  Solving for p, Initial residual = 4.147e-05, Final residual = 3.86891e-06, No Iterations 8
time step continuity errors : sum local = 6.22845e-11, global = 5.69826e-18, cumulative = 1.47285e-16
Pressure gradient source: uncorrected Ubar = 1, pressure gradient = 0.00370509
smoothSolver:  Solving for omega, Initial residual = 8.08966e-06, Final residual = 8.08966e-06, No Iterations 0
smoothSolver:  Solving for k, Initial residual = 2.37457e-05, Final residual = 8.89731e-06, No Iterations 2
ExecutionTime = 6.63441 s  ClockTime = 7 s

Time = 2414s

smoothSolver:  Solving for Ux, Initial residual = 4.82891e-06, Final residual = 4.82891e-06, No Iterations 0
smoothSolver:  Solving for Uy, Initial residual = 0.000136464, Final residual = 9.77055e-06, No Iterations 4
Pressure gradient source: uncorrected Ubar = 1, pressure gradient = 0.00370509
GAMG:  Solving for p, Initial residual = 4.10419e-05, Final residual = 3.79096e-06, No Iterations 8
time step continuity errors : sum local = 6.11061e-11, global = -5.57671e-18, cumulative = 1.41709e-16
Pressure gradient source: uncorrected Ubar = 1, pressure gradient = 0.00370507
smoothSolver:  Solving for omega, Initial residual = 8.08966e-06, Final residual = 8.08966e-06, No Iterations 0
smoothSolver:  Solving for k, Initial residual = 2.36118e-05, Final residual = 8.84687e-06, No Iterations 2
ExecutionTime = 6.63701 s  ClockTime = 7 s

Time = 2415s

smoothSolver:  Solving for Ux, Initial residual = 4.82489e-06, Final residual = 4.82489e-06, No Iterations 0
smoothSolver:  Solving for Uy, Initial residual = 0.000134701, Final residual = 9.6462e-06, No Iterations 4
Pressure gradient source: uncorrected Ubar = 1, pressure gradient = 0.00370507
GAMG:  Solving for p, Initial residual = 4.05206e-05, Final residual = 3.69982e-06, No Iterations 8
time step continuity errors : sum local = 5.96919e-11, global = -1.95737e-18, cumulative = 1.39751e-16
Pressure gradient source: uncorrected Ubar = 1, pressure gradient = 0.00370505
smoothSolver:  Solving for omega, Initial residual = 8.08966e-06, Final residual = 8.08966e-06, No Iterations 0
smoothSolver:  Solving for k, Initial residual = 2.34779e-05, Final residual = 8.79645e-06, No Iterations 2
ExecutionTime = 6.6396 s  ClockTime = 7 s

Time = 2416s

smoothSolver:  Solving for Ux, Initial residual = 4.82092e-06, Final residual = 4.82092e-06, No Iterations 0
smoothSolver:  Solving for Uy, Initial residual = 0.000132418, Final residual = 9.50585e-06, No Iterations 4
Pressure gradient source: uncorrected Ubar = 1, pressure gradient = 0.00370505
GAMG:  Solving for p, Initial residual = 3.99332e-05, Final residual = 3.60874e-06, No Iterations 8
time step continuity errors : sum local = 5.8247e-11, global = -5.1764e-18, cumulative = 1.34575e-16
Pressure gradient source: uncorrected Ubar = 1, pressure gradient = 0.00370503
smoothSolver:  Solving for omega, Initial residual = 8.08966e-06, Final residual = 8.08966e-06, No Iterations 0
smoothSolver:  Solving for k, Initial residual = 2.3344e-05, Final residual = 8.74604e-06, No Iterations 2
ExecutionTime = 6.64221 s  ClockTime = 7 s

Time = 2417s

smoothSolver:  Solving for Ux, Initial residual = 4.8171e-06, Final residual = 4.8171e-06, No Iterations 0
smoothSolver:  Solving for Uy, Initial residual = 0.000130501, Final residual = 9.36448e-06, No Iterations 4
Pressure gradient source: uncorrected Ubar = 1, pressure gradient = 0.00370503
GAMG:  Solving for p, Initial residual = 3.93078e-05, Final residual = 3.52154e-06, No Iterations 8
time step continuity errors : sum local = 5.68069e-11, global = -1.03662e-18, cumulative = 1.33538e-16
Pressure gradient source: uncorrected Ubar = 1, pressure gradient = 0.00370501
smoothSolver:  Solving for omega, Initial residual = 8.08967e-06, Final residual = 8.08967e-06, No Iterations 0
smoothSolver:  Solving for k, Initial residual = 2.32102e-05, Final residual = 8.69564e-06, No Iterations 2
ExecutionTime = 6.6448 s  ClockTime = 7 s

Time = 2418s

smoothSolver:  Solving for Ux, Initial residual = 4.81323e-06, Final residual = 4.81323e-06, No Iterations 0
smoothSolver:  Solving for Uy, Initial residual = 0.000128996, Final residual = 9.21739e-06, No Iterations 4
Pressure gradient source: uncorrected Ubar = 1, pressure gradient = 0.00370501
GAMG:  Solving for p, Initial residual = 3.86748e-05, Final residual = 3.44316e-06, No Iterations 8
time step continuity errors : sum local = 5.54433e-11, global = -9.70836e-19, cumulative = 1.32567e-16
Pressure gradient source: uncorrected Ubar = 1, pressure gradient = 0.00370499
smoothSolver:  Solving for omega, Initial residual = 8.08967e-06, Final residual = 8.08967e-06, No Iterations 0
smoothSolver:  Solving for k, Initial residual = 2.30764e-05, Final residual = 8.64526e-06, No Iterations 2
ExecutionTime = 6.64738 s  ClockTime = 7 s

Time = 2419s

smoothSolver:  Solving for Ux, Initial residual = 4.80931e-06, Final residual = 4.80931e-06, No Iterations 0
smoothSolver:  Solving for Uy, Initial residual = 0.000126817, Final residual = 9.06328e-06, No Iterations 4
Pressure gradient source: uncorrected Ubar = 1, pressure gradient = 0.00370499
GAMG:  Solving for p, Initial residual = 3.80649e-05, Final residual = 3.37972e-06, No Iterations 8
time step continuity errors : sum local = 5.42566e-11, global = 6.1012e-18, cumulative = 1.38668e-16
Pressure gradient source: uncorrected Ubar = 1, pressure gradient = 0.00370497
smoothSolver:  Solving for omega, Initial residual = 8.08967e-06, Final residual = 8.08967e-06, No Iterations 0
smoothSolver:  Solving for k, Initial residual = 2.29427e-05, Final residual = 8.5949e-06, No Iterations 2
ExecutionTime = 6.64996 s  ClockTime = 7 s

Time = 2420s

smoothSolver:  Solving for Ux, Initial residual = 4.80544e-06, Final residual = 4.80544e-06, No Iterations 0
smoothSolver:  Solving for Uy, Initial residual = 0.000124214, Final residual = 8.89421e-06, No Iterations 4
Pressure gradient source: uncorrected Ubar = 1, pressure gradient = 0.00370497
GAMG:  Solving for p, Initial residual = 3.7525e-05, Final residual = 3.33636e-06, No Iterations 8
time step continuity errors : sum local = 5.33203e-11, global = -2.1708e-18, cumulative = 1.36498e-16
Pressure gradient source: uncorrected Ubar = 1, pressure gradient = 0.00370495
smoothSolver:  Solving for omega, Initial residual = 8.08967e-06, Final residual = 8.08967e-06, No Iterations 0
smoothSolver:  Solving for k, Initial residual = 2.2809e-05, Final residual = 8.54457e-06, No Iterations 2
ExecutionTime = 6.65266 s  ClockTime = 7 s

Time = 2421s

smoothSolver:  Solving for Ux, Initial residual = 4.80167e-06, Final residual = 4.80167e-06, No Iterations 0
smoothSolver:  Solving for Uy, Initial residual = 0.00012126, Final residual = 8.71197e-06, No Iterations 4
Pressure gradient source: uncorrected Ubar = 1, pressure gradient = 0.00370495
GAMG:  Solving for p, Initial residual = 3.70577e-05, Final residual = 3.30858e-06, No Iterations 8
time step continuity errors : sum local = 5.26021e-11, global = 5.40573e-19, cumulative = 1.37038e-16
Pressure gradient source: uncorrected Ubar = 1, pressure gradient = 0.00370493
smoothSolver:  Solving for omega, Initial residual = 8.08967e-06, Final residual = 8.08967e-06, No Iterations 0
smoothSolver:  Solving for k, Initial residual = 2.26754e-05, Final residual = 8.49426e-06, No Iterations 2
ExecutionTime = 6.65526 s  ClockTime = 7 s

Time = 2422s

smoothSolver:  Solving for Ux, Initial residual = 4.79785e-06, Final residual = 4.79785e-06, No Iterations 0
smoothSolver:  Solving for Uy, Initial residual = 0.000118178, Final residual = 8.52552e-06, No Iterations 4
Pressure gradient source: uncorrected Ubar = 1, pressure gradient = 0.00370493
GAMG:  Solving for p, Initial residual = 3.66481e-05, Final residual = 3.29417e-06, No Iterations 8
time step continuity errors : sum local = 5.20733e-11, global = 7.45204e-19, cumulative = 1.37783e-16
Pressure gradient source: uncorrected Ubar = 1, pressure gradient = 0.00370491
smoothSolver:  Solving for omega, Initial residual = 8.08967e-06, Final residual = 8.08967e-06, No Iterations 0
smoothSolver:  Solving for k, Initial residual = 2.25419e-05, Final residual = 8.44398e-06, No Iterations 2
ExecutionTime = 6.65783 s  ClockTime = 7 s

Time = 2423s

smoothSolver:  Solving for Ux, Initial residual = 4.79404e-06, Final residual = 4.79404e-06, No Iterations 0
smoothSolver:  Solving for Uy, Initial residual = 0.00011528, Final residual = 8.33907e-06, No Iterations 4
Pressure gradient source: uncorrected Ubar = 1, pressure gradient = 0.00370491
GAMG:  Solving for p, Initial residual = 3.63369e-05, Final residual = 3.29563e-06, No Iterations 8
time step continuity errors : sum local = 5.17786e-11, global = 1.27124e-18, cumulative = 1.39055e-16
Pressure gradient source: uncorrected Ubar = 1, pressure gradient = 0.00370489
smoothSolver:  Solving for omega, Initial residual = 8.08967e-06, Final residual = 8.08967e-06, No Iterations 0
smoothSolver:  Solving for k, Initial residual = 2.24085e-05, Final residual = 8.39373e-06, No Iterations 2
ExecutionTime = 6.66042 s  ClockTime = 7 s

Time = 2424s

smoothSolver:  Solving for Ux, Initial residual = 4.79033e-06, Final residual = 4.79033e-06, No Iterations 0
smoothSolver:  Solving for Uy, Initial residual = 0.000112363, Final residual = 8.15416e-06, No Iterations 4
Pressure gradient source: uncorrected Ubar = 1, pressure gradient = 0.00370489
GAMG:  Solving for p, Initial residual = 3.61437e-05, Final residual = 3.31643e-06, No Iterations 8
time step continuity errors : sum local = 5.21055e-11, global = -2.59951e-18, cumulative = 1.36455e-16
Pressure gradient source: uncorrected Ubar = 1, pressure gradient = 0.00370487
smoothSolver:  Solving for omega, Initial residual = 8.08967e-06, Final residual = 8.08967e-06, No Iterations 0
smoothSolver:  Solving for k, Initial residual = 2.22751e-05, Final residual = 8.34351e-06, No Iterations 2
ExecutionTime = 6.66303 s  ClockTime = 7 s

Time = 2425s

smoothSolver:  Solving for Ux, Initial residual = 4.78658e-06, Final residual = 4.78658e-06, No Iterations 0
smoothSolver:  Solving for Uy, Initial residual = 0.000109659, Final residual = 7.97592e-06, No Iterations 4
Pressure gradient source: uncorrected Ubar = 1, pressure gradient = 0.00370487
GAMG:  Solving for p, Initial residual = 3.60113e-05, Final residual = 3.35567e-06, No Iterations 8
time step continuity errors : sum local = 5.30241e-11, global = 1.05636e-17, cumulative = 1.47019e-16
Pressure gradient source: uncorrected Ubar = 1, pressure gradient = 0.00370485
smoothSolver:  Solving for omega, Initial residual = 8.08968e-06, Final residual = 8.08968e-06, No Iterations 0
smoothSolver:  Solving for k, Initial residual = 2.21418e-05, Final residual = 8.29333e-06, No Iterations 2
ExecutionTime = 6.66559 s  ClockTime = 7 s

Time = 2426s

smoothSolver:  Solving for Ux, Initial residual = 4.78291e-06, Final residual = 4.78291e-06, No Iterations 0
smoothSolver:  Solving for Uy, Initial residual = 0.000107027, Final residual = 7.80526e-06, No Iterations 4
Pressure gradient source: uncorrected Ubar = 1, pressure gradient = 0.00370485
GAMG:  Solving for p, Initial residual = 3.59324e-05, Final residual = 3.40958e-06, No Iterations 8
time step continuity errors : sum local = 5.41663e-11, global = 1.88893e-18, cumulative = 1.48908e-16
Pressure gradient source: uncorrected Ubar = 1, pressure gradient = 0.00370483
smoothSolver:  Solving for omega, Initial residual = 8.08968e-06, Final residual = 8.08968e-06, No Iterations 0
smoothSolver:  Solving for k, Initial residual = 2.20086e-05, Final residual = 8.24318e-06, No Iterations 2
ExecutionTime = 6.66819 s  ClockTime = 7 s

Time = 2427s

smoothSolver:  Solving for Ux, Initial residual = 4.77925e-06, Final residual = 4.77925e-06, No Iterations 0
smoothSolver:  Solving for Uy, Initial residual = 0.000104546, Final residual = 7.64447e-06, No Iterations 4
Pressure gradient source: uncorrected Ubar = 1, pressure gradient = 0.00370483
GAMG:  Solving for p, Initial residual = 3.58944e-05, Final residual = 3.48097e-06, No Iterations 8
time step continuity errors : sum local = 5.55585e-11, global = 1.62906e-18, cumulative = 1.50537e-16
Pressure gradient source: uncorrected Ubar = 1, pressure gradient = 0.00370481
smoothSolver:  Solving for omega, Initial residual = 8.08968e-06, Final residual = 8.08968e-06, No Iterations 0
smoothSolver:  Solving for k, Initial residual = 2.18755e-05, Final residual = 8.19307e-06, No Iterations 2
ExecutionTime = 6.67077 s  ClockTime = 7 s

Time = 2428s

smoothSolver:  Solving for Ux, Initial residual = 4.77566e-06, Final residual = 4.77566e-06, No Iterations 0
smoothSolver:  Solving for Uy, Initial residual = 0.00010233, Final residual = 7.49962e-06, No Iterations 4
Pressure gradient source: uncorrected Ubar = 1, pressure gradient = 0.00370481
GAMG:  Solving for p, Initial residual = 3.5883e-05, Final residual = 3.53737e-06, No Iterations 9
time step continuity errors : sum local = 5.61242e-11, global = 1.32576e-18, cumulative = 1.51863e-16
Pressure gradient source: uncorrected Ubar = 1, pressure gradient = 0.00370479
smoothSolver:  Solving for omega, Initial residual = 8.08968e-06, Final residual = 8.08968e-06, No Iterations 0
smoothSolver:  Solving for k, Initial residual = 2.17426e-05, Final residual = 8.14301e-06, No Iterations 2
ExecutionTime = 6.67341 s  ClockTime = 7 s

Time = 2429s

smoothSolver:  Solving for Ux, Initial residual = 4.77214e-06, Final residual = 4.77214e-06, No Iterations 0
smoothSolver:  Solving for Uy, Initial residual = 0.000100726, Final residual = 7.45618e-06, No Iterations 4
Pressure gradient source: uncorrected Ubar = 1, pressure gradient = 0.00370479
GAMG:  Solving for p, Initial residual = 3.59461e-05, Final residual = 3.49161e-06, No Iterations 8
time step continuity errors : sum local = 5.56287e-11, global = 2.93489e-18, cumulative = 1.54797e-16
Pressure gradient source: uncorrected Ubar = 1, pressure gradient = 0.00370477
smoothSolver:  Solving for omega, Initial residual = 8.08968e-06, Final residual = 8.08968e-06, No Iterations 0
smoothSolver:  Solving for k, Initial residual = 2.16097e-05, Final residual = 8.09298e-06, No Iterations 2
ExecutionTime = 6.67606 s  ClockTime = 7 s

Time = 2430s

smoothSolver:  Solving for Ux, Initial residual = 4.76864e-06, Final residual = 4.76864e-06, No Iterations 0
smoothSolver:  Solving for Uy, Initial residual = 9.94557e-05, Final residual = 7.28867e-06, No Iterations 4
Pressure gradient source: uncorrected Ubar = 1, pressure gradient = 0.00370477
GAMG:  Solving for p, Initial residual = 3.58417e-05, Final residual = 3.01526e-06, No Iterations 10
time step continuity errors : sum local = 4.79179e-11, global = -3.97566e-18, cumulative = 1.50822e-16
Pressure gradient source: uncorrected Ubar = 1, pressure gradient = 0.00370475
smoothSolver:  Solving for omega, Initial residual = 8.08968e-06, Final residual = 8.08968e-06, No Iterations 0
smoothSolver:  Solving for k, Initial residual = 2.14769e-05, Final residual = 8.043e-06, No Iterations 2
ExecutionTime = 6.67874 s  ClockTime = 7 s


SIMPLE solution converged in 2430 iterations

End

