/*---------------------------------------------------------------------------*\
  =========                 |
  \\      /  F ield         | OpenFOAM: The Open Source CFD Toolbox
   \\    /   O peration     | Website:  https://openfoam.org
    \\  /    A nd           | Version:  10
     \\/     M anipulation  |
\*---------------------------------------------------------------------------*/
Build  : 10-e450dce21ea5
Exec   : blockMesh
Date   : Jan 16 2023
Time   : 11:43:18
Host   : "w530-R9YK46P"
PID    : 14323
I/O    : uncollated
Case   : /home/jdmezazeron/gitDanielMezaZ/turbulenceVisualized/Data/SimulationFiles/E16_Re2581
nProcs : 1
sigFpe : Enabling floating point exception trapping (FOAM_SIGFPE).
fileModificationChecking : Monitoring run-time modified files using timeStampMaster (fileModificationSkew 10)
allowSystemOperations : Allowing user-supplied system call operations

// * * * * * * * * * * * * * * * * * * * * * * * * * * * * * * * * * * * * * //
Create time

Reading "blockMeshDict"

Creating block mesh from
    "system/blockMeshDict"
Creating block edges
No non-planar block faces defined
Creating topology blocks
Creating topology patches

Creating block mesh topology

Check topology

	Basic statistics
		Number of internal faces : 0
		Number of boundary faces : 6
		Number of defined boundary faces : 6
		Number of undefined boundary faces : 0
	Checking patch -> block consistency

Creating block offsets
Creating merge list .

Creating polyMesh from blockMesh
Creating patches
Creating cells
Creating points with scale 1
    Block 0 cell size :
        i : 0.5
        j : 0.00921276 .. 0.036851
        k : 2

Detected cyclic patches; ordering boundary faces

Writing polyMesh
----------------
Mesh Information
----------------
  boundingBox: (-1 0 -1) (1 1 1)
  nPoints: 510
  nCells: 200
  nFaces: 854
  nInternalFaces: 346
----------------
Patches
----------------
  patch 0 (start: 346 size: 50) name: inlet
  patch 1 (start: 396 size: 50) name: outlet
  patch 2 (start: 446 size: 4) name: fixedWalls-bottom
  patch 3 (start: 450 size: 4) name: fixedWalls-top
  patch 4 (start: 454 size: 400) name: frontAndBack

End

/*---------------------------------------------------------------------------*\
  =========                 |
  \\      /  F ield         | OpenFOAM: The Open Source CFD Toolbox
   \\    /   O peration     | Website:  https://openfoam.org
    \\  /    A nd           | Version:  10
     \\/     M anipulation  |
\*---------------------------------------------------------------------------*/
Build  : 10-e450dce21ea5
Exec   : simpleFoam
Date   : Jan 16 2023
Time   : 11:43:18
Host   : "w530-R9YK46P"
PID    : 14324
I/O    : uncollated
Case   : /home/jdmezazeron/gitDanielMezaZ/turbulenceVisualized/Data/SimulationFiles/E16_Re2581
nProcs : 1
sigFpe : Enabling floating point exception trapping (FOAM_SIGFPE).
fileModificationChecking : Monitoring run-time modified files using timeStampMaster (fileModificationSkew 10)
allowSystemOperations : Allowing user-supplied system call operations

// * * * * * * * * * * * * * * * * * * * * * * * * * * * * * * * * * * * * * //
Create time

Create mesh for time = 0


SIMPLE: Convergence criteria found
        U: tolerance 0.01
        p: tolerance 0.01
        omega: tolerance 0.0001

Reading field p

Reading field U

Reading/calculating face flux field phi

Selecting viscosity model Newtonian
Selecting turbulence model type RAS
Selecting RAS turbulence model kOmegaSST
Selecting patchDistMethod meshWave
RAS
{
    RASModel        kOmegaSST;
    turbulence      on;
    printCoeffs     on;
    alphaK1         0.85;
    alphaK2         1;
    alphaOmega1     0.5;
    alphaOmega2     0.856;
    gamma1          0.555556;
    gamma2          0.44;
    beta1           0.075;
    beta2           0.0828;
    betaStar        0.09;
    a1              0.31;
    b1              1;
    c1              10;
    F3              false;
}

No MRF models present

--> FOAM Warning : Creating fvModels from "system/fvOptions" rather than constant/fvModels
No fvModels present
--> FOAM Warning : Creating fvConstraints from "system/fvOptions"

Selecting finite volume constraint type meanVelocityForce
    Name: momentumSource
    - selecting all cells
    - selected 200 cell(s) with volume 4
    Initial pressure gradient = 0


Starting time loop

turbulenceFields stressComponents: storing fields:
    R

Time = 1s

smoothSolver:  Solving for Ux, Initial residual = 0, Final residual = 0, No Iterations 0
smoothSolver:  Solving for Uy, Initial residual = 0, Final residual = 0, No Iterations 0
Pressure gradient source: uncorrected Ubar = 0, pressure gradient = 3.67778
GAMG:  Solving for p, Initial residual = 0.999988, Final residual = 0.0446817, No Iterations 3
time step continuity errors : sum local = 4.69721e-17, global = -3.1007e-18, cumulative = -3.1007e-18
Pressure gradient source: uncorrected Ubar = 0.869369, pressure gradient = 0.480431
smoothSolver:  Solving for omega, Initial residual = 0.0515541, Final residual = 0.00416493, No Iterations 1
bounding omega, min: -7.03136 max: 2921.95 average: 113.522
smoothSolver:  Solving for k, Initial residual = 1, Final residual = 0.0783956, No Iterations 1
ExecutionTime = 0.012835 s  ClockTime = 0 s

Time = 2s

smoothSolver:  Solving for Ux, Initial residual = 0.255482, Final residual = 0.019973, No Iterations 6
smoothSolver:  Solving for Uy, Initial residual = 1, Final residual = 0.0840979, No Iterations 2
Pressure gradient source: uncorrected Ubar = 1.36515, pressure gradient = -2.88182
GAMG:  Solving for p, Initial residual = 1, Final residual = 0.0782739, No Iterations 7
time step continuity errors : sum local = 0.00504019, global = -1.47316e-17, cumulative = -1.78323e-17
Pressure gradient source: uncorrected Ubar = 1.06656, pressure gradient = -0.132442
smoothSolver:  Solving for omega, Initial residual = 0.0674753, Final residual = 0.00102483, No Iterations 1
smoothSolver:  Solving for k, Initial residual = 0.247707, Final residual = 0.0168655, No Iterations 3
ExecutionTime = 0.015126 s  ClockTime = 0 s

Time = 3s

smoothSolver:  Solving for Ux, Initial residual = 0.202533, Final residual = 0.0158686, No Iterations 5
smoothSolver:  Solving for Uy, Initial residual = 0.518293, Final residual = 0.0229341, No Iterations 3
Pressure gradient source: uncorrected Ubar = 0.892399, pressure gradient = 1.05441
GAMG:  Solving for p, Initial residual = 0.172655, Final residual = 0.0133425, No Iterations 5
time step continuity errors : sum local = 0.00295523, global = -1.0842e-19, cumulative = -1.79407e-17
Pressure gradient source: uncorrected Ubar = 0.985219, pressure gradient = 0.0305929
smoothSolver:  Solving for omega, Initial residual = 0.00933795, Final residual = 0.000502352, No Iterations 1
smoothSolver:  Solving for k, Initial residual = 0.1108, Final residual = 0.00830993, No Iterations 2
ExecutionTime = 0.01719 s  ClockTime = 0 s

Time = 4s

smoothSolver:  Solving for Ux, Initial residual = 0.0739156, Final residual = 0.00508645, No Iterations 4
smoothSolver:  Solving for Uy, Initial residual = 0.37666, Final residual = 0.0174504, No Iterations 3
Pressure gradient source: uncorrected Ubar = 1.01008, pressure gradient = -0.0831043
GAMG:  Solving for p, Initial residual = 0.111353, Final residual = 0.00601358, No Iterations 8
time step continuity errors : sum local = 0.00146686, global = 5.81403e-18, cumulative = -1.21267e-17
Pressure gradient source: uncorrected Ubar = 1.00121, pressure gradient = 0.0169296
smoothSolver:  Solving for omega, Initial residual = 0.00863032, Final residual = 0.000296394, No Iterations 1
smoothSolver:  Solving for k, Initial residual = 0.0562001, Final residual = 0.00228996, No Iterations 3
ExecutionTime = 0.019284 s  ClockTime = 0 s

Time = 5s

smoothSolver:  Solving for Ux, Initial residual = 0.0415905, Final residual = 0.00336516, No Iterations 4
smoothSolver:  Solving for Uy, Initial residual = 0.443518, Final residual = 0.0197009, No Iterations 3
Pressure gradient source: uncorrected Ubar = 1.00273, pressure gradient = -0.0143023
GAMG:  Solving for p, Initial residual = 0.159546, Final residual = 0.0116801, No Iterations 5
time step continuity errors : sum local = 0.00146843, global = 1.08691e-17, cumulative = -1.25756e-18
Pressure gradient source: uncorrected Ubar = 1.00035, pressure gradient = 0.0129679
smoothSolver:  Solving for omega, Initial residual = 0.00347701, Final residual = 0.000179118, No Iterations 1
smoothSolver:  Solving for k, Initial residual = 0.041271, Final residual = 0.00279639, No Iterations 3
ExecutionTime = 0.021291 s  ClockTime = 0 s

Time = 6s

smoothSolver:  Solving for Ux, Initial residual = 0.0262661, Final residual = 0.00260946, No Iterations 4
smoothSolver:  Solving for Uy, Initial residual = 0.602358, Final residual = 0.0243853, No Iterations 3
Pressure gradient source: uncorrected Ubar = 1.00172, pressure gradient = -0.0068111
GAMG:  Solving for p, Initial residual = 0.133934, Final residual = 0.0109416, No Iterations 8
time step continuity errors : sum local = 0.000988498, global = 3.41481e-18, cumulative = 2.15725e-18
Pressure gradient source: uncorrected Ubar = 1.00025, pressure gradient = 0.0101169
smoothSolver:  Solving for omega, Initial residual = 0.00230511, Final residual = 0.000119276, No Iterations 1
smoothSolver:  Solving for k, Initial residual = 0.0349432, Final residual = 0.00173411, No Iterations 4
ExecutionTime = 0.023386 s  ClockTime = 0 s

Time = 7s

smoothSolver:  Solving for Ux, Initial residual = 0.0187214, Final residual = 0.00143967, No Iterations 5
smoothSolver:  Solving for Uy, Initial residual = 0.736686, Final residual = 0.0329104, No Iterations 3
Pressure gradient source: uncorrected Ubar = 1.00135, pressure gradient = -0.00560692
GAMG:  Solving for p, Initial residual = 0.121874, Final residual = 0.00983592, No Iterations 7
time step continuity errors : sum local = 0.000627879, global = -1.19998e-17, cumulative = -9.84256e-18
Pressure gradient source: uncorrected Ubar = 1.00017, pressure gradient = 0.00817002
smoothSolver:  Solving for omega, Initial residual = 0.00120292, Final residual = 8.5725e-05, No Iterations 1
smoothSolver:  Solving for k, Initial residual = 0.0334903, Final residual = 0.00263623, No Iterations 4
ExecutionTime = 0.025491 s  ClockTime = 0 s

Time = 8s

smoothSolver:  Solving for Ux, Initial residual = 0.0147756, Final residual = 0.00126591, No Iterations 5
smoothSolver:  Solving for Uy, Initial residual = 0.779865, Final residual = 0.0397758, No Iterations 3
Pressure gradient source: uncorrected Ubar = 1.00082, pressure gradient = -0.00152519
GAMG:  Solving for p, Initial residual = 0.104424, Final residual = 0.00561779, No Iterations 4
time step continuity errors : sum local = 0.000381915, global = 3.31359e-18, cumulative = -6.52896e-18
Pressure gradient source: uncorrected Ubar = 1.00009, pressure gradient = 0.00711537
smoothSolver:  Solving for omega, Initial residual = 0.000726529, Final residual = 5.82195e-05, No Iterations 1
smoothSolver:  Solving for k, Initial residual = 0.0313374, Final residual = 0.00249865, No Iterations 4
ExecutionTime = 0.027476 s  ClockTime = 0 s

Time = 9s

smoothSolver:  Solving for Ux, Initial residual = 0.012435, Final residual = 0.00115881, No Iterations 5
smoothSolver:  Solving for Uy, Initial residual = 0.757429, Final residual = 0.0373967, No Iterations 3
Pressure gradient source: uncorrected Ubar = 1.00054, pressure gradient = 0.000608915
GAMG:  Solving for p, Initial residual = 0.0896475, Final residual = 0.00509064, No Iterations 7
time step continuity errors : sum local = 0.00030756, global = 8.74646e-18, cumulative = 2.2175e-18
Pressure gradient source: uncorrected Ubar = 1.00005, pressure gradient = 0.0065015
smoothSolver:  Solving for omega, Initial residual = 0.000417037, Final residual = 2.05741e-05, No Iterations 2
smoothSolver:  Solving for k, Initial residual = 0.0287293, Final residual = 0.00203044, No Iterations 4
ExecutionTime = 0.02975 s  ClockTime = 0 s

Time = 10s

smoothSolver:  Solving for Ux, Initial residual = 0.0112571, Final residual = 0.00109072, No Iterations 5
smoothSolver:  Solving for Uy, Initial residual = 0.57603, Final residual = 0.027744, No Iterations 3
Pressure gradient source: uncorrected Ubar = 1.00028, pressure gradient = 0.00298192
GAMG:  Solving for p, Initial residual = 0.083619, Final residual = 0.00529727, No Iterations 7
time step continuity errors : sum local = 0.000298269, global = -6.5518e-19, cumulative = 1.56232e-18
Pressure gradient source: uncorrected Ubar = 1.00002, pressure gradient = 0.00624891
smoothSolver:  Solving for omega, Initial residual = 0.000248771, Final residual = 1.32281e-05, No Iterations 2
smoothSolver:  Solving for k, Initial residual = 0.0260465, Final residual = 0.00191494, No Iterations 4
ExecutionTime = 0.031903 s  ClockTime = 0 s

Time = 11s

smoothSolver:  Solving for Ux, Initial residual = 0.0103503, Final residual = 0.000692653, No Iterations 6
smoothSolver:  Solving for Uy, Initial residual = 0.448924, Final residual = 0.0203307, No Iterations 3
Pressure gradient source: uncorrected Ubar = 1.00037, pressure gradient = 0.00154313
GAMG:  Solving for p, Initial residual = 0.0814612, Final residual = 0.00381044, No Iterations 7
time step continuity errors : sum local = 0.000173192, global = -1.89735e-18, cumulative = -3.35035e-19
Pressure gradient source: uncorrected Ubar = 1.00003, pressure gradient = 0.00581582
smoothSolver:  Solving for omega, Initial residual = 0.000148874, Final residual = 1.12876e-05, No Iterations 2
smoothSolver:  Solving for k, Initial residual = 0.0232779, Final residual = 0.00137229, No Iterations 5
ExecutionTime = 0.033985 s  ClockTime = 0 s

Time = 12s

smoothSolver:  Solving for Ux, Initial residual = 0.00949661, Final residual = 0.00066369, No Iterations 6
smoothSolver:  Solving for Uy, Initial residual = 0.425792, Final residual = 0.0189104, No Iterations 3
Pressure gradient source: uncorrected Ubar = 1.00021, pressure gradient = 0.00312401
GAMG:  Solving for p, Initial residual = 0.0851546, Final residual = 0.00746515, No Iterations 6
time step continuity errors : sum local = 0.000268809, global = 3.59618e-18, cumulative = 3.26115e-18
Pressure gradient source: uncorrected Ubar = 1.00001, pressure gradient = 0.00562386
smoothSolver:  Solving for omega, Initial residual = 0.000102006, Final residual = 9.66408e-06, No Iterations 2
smoothSolver:  Solving for k, Initial residual = 0.0214102, Final residual = 0.00210094, No Iterations 4
ExecutionTime = 0.035962 s  ClockTime = 0 s

Time = 13s

smoothSolver:  Solving for Ux, Initial residual = 0.00885492, Final residual = 0.000638597, No Iterations 6
smoothSolver:  Solving for Uy, Initial residual = 0.46633, Final residual = 0.0214869, No Iterations 3
Pressure gradient source: uncorrected Ubar = 1.00026, pressure gradient = 0.00217046
GAMG:  Solving for p, Initial residual = 0.0924432, Final residual = 0.00557159, No Iterations 7
time step continuity errors : sum local = 0.000161675, global = 5.40441e-18, cumulative = 8.66556e-18
Pressure gradient source: uncorrected Ubar = 1.00003, pressure gradient = 0.00528713
smoothSolver:  Solving for omega, Initial residual = 7.12197e-05, Final residual = 9.91073e-06, No Iterations 2
smoothSolver:  Solving for k, Initial residual = 0.0181237, Final residual = 0.00117153, No Iterations 5
ExecutionTime = 0.037988 s  ClockTime = 0 s

Time = 14s

smoothSolver:  Solving for Ux, Initial residual = 0.00823163, Final residual = 0.000608804, No Iterations 6
smoothSolver:  Solving for Uy, Initial residual = 0.510379, Final residual = 0.0227976, No Iterations 3
Pressure gradient source: uncorrected Ubar = 1.00021, pressure gradient = 0.00241666
GAMG:  Solving for p, Initial residual = 0.0954086, Final residual = 0.00560636, No Iterations 7
time step continuity errors : sum local = 0.000134082, global = -2.22346e-20, cumulative = 8.64333e-18
Pressure gradient source: uncorrected Ubar = 1.00002, pressure gradient = 0.00499815
smoothSolver:  Solving for omega, Initial residual = 4.97203e-05, Final residual = 7.67065e-06, No Iterations 2
smoothSolver:  Solving for k, Initial residual = 0.0145541, Final residual = 0.00092468, No Iterations 5
ExecutionTime = 0.040003 s  ClockTime = 0 s

Time = 15s

smoothSolver:  Solving for Ux, Initial residual = 0.00754785, Final residual = 0.000581609, No Iterations 6
smoothSolver:  Solving for Uy, Initial residual = 0.508311, Final residual = 0.0226997, No Iterations 3
Pressure gradient source: uncorrected Ubar = 1.00016, pressure gradient = 0.00279079
GAMG:  Solving for p, Initial residual = 0.100924, Final residual = 0.00912553, No Iterations 6
time step continuity errors : sum local = 0.000178075, global = -7.41678e-18, cumulative = 1.22655e-18
Pressure gradient source: uncorrected Ubar = 1.00002, pressure gradient = 0.00479147
smoothSolver:  Solving for omega, Initial residual = 3.49174e-05, Final residual = 7.21089e-06, No Iterations 2
smoothSolver:  Solving for k, Initial residual = 0.011662, Final residual = 0.00102897, No Iterations 4
ExecutionTime = 0.042094 s  ClockTime = 0 s

Time = 16s

smoothSolver:  Solving for Ux, Initial residual = 0.00700031, Final residual = 0.000555384, No Iterations 6
smoothSolver:  Solving for Uy, Initial residual = 0.47257, Final residual = 0.0207889, No Iterations 3
Pressure gradient source: uncorrected Ubar = 1.00013, pressure gradient = 0.00303912
GAMG:  Solving for p, Initial residual = 0.105877, Final residual = 0.0105221, No Iterations 6
time step continuity errors : sum local = 0.00017434, global = -4.66006e-18, cumulative = -3.43351e-18
Pressure gradient source: uncorrected Ubar = 1.00001, pressure gradient = 0.00463742
smoothSolver:  Solving for omega, Initial residual = 2.76822e-05, Final residual = 6.42188e-06, No Iterations 2
smoothSolver:  Solving for k, Initial residual = 0.0101179, Final residual = 0.000753832, No Iterations 5
ExecutionTime = 0.044199 s  ClockTime = 0 s

Time = 17s

smoothSolver:  Solving for Ux, Initial residual = 0.00657342, Final residual = 0.000536516, No Iterations 6
smoothSolver:  Solving for Uy, Initial residual = 0.444349, Final residual = 0.019983, No Iterations 3
Pressure gradient source: uncorrected Ubar = 1.00011, pressure gradient = 0.00307141
GAMG:  Solving for p, Initial residual = 0.098847, Final residual = 0.00538172, No Iterations 7
time step continuity errors : sum local = 8.36994e-05, global = 3.10689e-18, cumulative = -3.26618e-19
Pressure gradient source: uncorrected Ubar = 1.00001, pressure gradient = 0.00449562
smoothSolver:  Solving for omega, Initial residual = 2.48338e-05, Final residual = 6.56687e-06, No Iterations 2
smoothSolver:  Solving for k, Initial residual = 0.00847846, Final residual = 0.0004943, No Iterations 5
ExecutionTime = 0.046392 s  ClockTime = 0 s

Time = 18s

smoothSolver:  Solving for Ux, Initial residual = 0.00620292, Final residual = 0.000516672, No Iterations 6
smoothSolver:  Solving for Uy, Initial residual = 0.452789, Final residual = 0.0205048, No Iterations 3
Pressure gradient source: uncorrected Ubar = 1.00007, pressure gradient = 0.0034551
GAMG:  Solving for p, Initial residual = 0.0921321, Final residual = 0.00637946, No Iterations 6
time step continuity errors : sum local = 9.26943e-05, global = 2.59568e-18, cumulative = 2.26906e-18
Pressure gradient source: uncorrected Ubar = 1.00001, pressure gradient = 0.00441581
smoothSolver:  Solving for omega, Initial residual = 1.95115e-05, Final residual = 9.4462e-06, No Iterations 1
smoothSolver:  Solving for k, Initial residual = 0.00740902, Final residual = 0.000728545, No Iterations 4
ExecutionTime = 0.048498 s  ClockTime = 0 s

Time = 19s

smoothSolver:  Solving for Ux, Initial residual = 0.00591088, Final residual = 0.000498864, No Iterations 6
smoothSolver:  Solving for Uy, Initial residual = 0.52097, Final residual = 0.0244683, No Iterations 3
Pressure gradient source: uncorrected Ubar = 1.00006, pressure gradient = 0.003603
GAMG:  Solving for p, Initial residual = 0.0881419, Final residual = 0.00804962, No Iterations 4
time step continuity errors : sum local = 0.000100476, global = -9.43171e-19, cumulative = 1.32589e-18
Pressure gradient source: uncorrected Ubar = 1, pressure gradient = 0.00435915
smoothSolver:  Solving for omega, Initial residual = 1.86919e-05, Final residual = 9.74915e-06, No Iterations 1
smoothSolver:  Solving for k, Initial residual = 0.00719926, Final residual = 0.000481414, No Iterations 5
ExecutionTime = 0.050536 s  ClockTime = 0 s

Time = 20s

smoothSolver:  Solving for Ux, Initial residual = 0.00565362, Final residual = 0.000484371, No Iterations 6
smoothSolver:  Solving for Uy, Initial residual = 0.599666, Final residual = 0.029377, No Iterations 3
Pressure gradient source: uncorrected Ubar = 1.00004, pressure gradient = 0.00379128
GAMG:  Solving for p, Initial residual = 0.0873777, Final residual = 0.00811692, No Iterations 4
time step continuity errors : sum local = 9.06497e-05, global = 2.91697e-18, cumulative = 4.24286e-18
Pressure gradient source: uncorrected Ubar = 1, pressure gradient = 0.00433005
smoothSolver:  Solving for omega, Initial residual = 1.75522e-05, Final residual = 9.7109e-06, No Iterations 1
smoothSolver:  Solving for k, Initial residual = 0.00659566, Final residual = 0.00044844, No Iterations 5
ExecutionTime = 0.05253 s  ClockTime = 0 s

Time = 21s

smoothSolver:  Solving for Ux, Initial residual = 0.00542244, Final residual = 0.00046999, No Iterations 6
smoothSolver:  Solving for Uy, Initial residual = 0.61793, Final residual = 0.0304877, No Iterations 3
Pressure gradient source: uncorrected Ubar = 1.00003, pressure gradient = 0.00391005
GAMG:  Solving for p, Initial residual = 0.0858403, Final residual = 0.00727182, No Iterations 4
time step continuity errors : sum local = 7.30646e-05, global = 5.32784e-18, cumulative = 9.5707e-18
Pressure gradient source: uncorrected Ubar = 1, pressure gradient = 0.0043179
smoothSolver:  Solving for omega, Initial residual = 1.68237e-05, Final residual = 8.91918e-06, No Iterations 1
smoothSolver:  Solving for k, Initial residual = 0.0059205, Final residual = 0.00038681, No Iterations 5
ExecutionTime = 0.054477 s  ClockTime = 0 s

Time = 22s

smoothSolver:  Solving for Ux, Initial residual = 0.00520787, Final residual = 0.000455792, No Iterations 6
smoothSolver:  Solving for Uy, Initial residual = 0.573448, Final residual = 0.0274505, No Iterations 3
Pressure gradient source: uncorrected Ubar = 1.00002, pressure gradient = 0.004028
GAMG:  Solving for p, Initial residual = 0.0823173, Final residual = 0.00683363, No Iterations 4
time step continuity errors : sum local = 6.05782e-05, global = 6.07627e-18, cumulative = 1.5647e-17
Pressure gradient source: uncorrected Ubar = 1, pressure gradient = 0.00431781
smoothSolver:  Solving for omega, Initial residual = 1.60755e-05, Final residual = 8.50838e-06, No Iterations 1
smoothSolver:  Solving for k, Initial residual = 0.00553612, Final residual = 0.000340079, No Iterations 5
ExecutionTime = 0.056418 s  ClockTime = 0 s

Time = 23s

smoothSolver:  Solving for Ux, Initial residual = 0.00500637, Final residual = 0.000442585, No Iterations 6
smoothSolver:  Solving for Uy, Initial residual = 0.519093, Final residual = 0.023904, No Iterations 3
Pressure gradient source: uncorrected Ubar = 1.00001, pressure gradient = 0.0041418
GAMG:  Solving for p, Initial residual = 0.0832172, Final residual = 0.00617731, No Iterations 4
time step continuity errors : sum local = 4.79885e-05, global = -7.85665e-18, cumulative = 7.79031e-18
Pressure gradient source: uncorrected Ubar = 0.999999, pressure gradient = 0.00433033
smoothSolver:  Solving for omega, Initial residual = 1.5573e-05, Final residual = 8.5283e-06, No Iterations 1
smoothSolver:  Solving for k, Initial residual = 0.00506517, Final residual = 0.000290364, No Iterations 5
ExecutionTime = 0.058458 s  ClockTime = 0 s

Time = 24s

smoothSolver:  Solving for Ux, Initial residual = 0.00481748, Final residual = 0.000428862, No Iterations 6
smoothSolver:  Solving for Uy, Initial residual = 0.474698, Final residual = 0.0216361, No Iterations 3
Pressure gradient source: uncorrected Ubar = 1.00001, pressure gradient = 0.00420429
GAMG:  Solving for p, Initial residual = 0.0818164, Final residual = 0.00640909, No Iterations 4
time step continuity errors : sum local = 4.27079e-05, global = -1.01409e-17, cumulative = -2.35058e-18
Pressure gradient source: uncorrected Ubar = 0.999999, pressure gradient = 0.00434586
smoothSolver:  Solving for omega, Initial residual = 1.49983e-05, Final residual = 8.06908e-06, No Iterations 1
smoothSolver:  Solving for k, Initial residual = 0.00474582, Final residual = 0.000320246, No Iterations 5
ExecutionTime = 0.060563 s  ClockTime = 0 s

Time = 25s

smoothSolver:  Solving for Ux, Initial residual = 0.00468697, Final residual = 0.000414365, No Iterations 6
smoothSolver:  Solving for Uy, Initial residual = 0.444236, Final residual = 0.0204302, No Iterations 3
Pressure gradient source: uncorrected Ubar = 1.00001, pressure gradient = 0.0042653
GAMG:  Solving for p, Initial residual = 0.0802034, Final residual = 0.00609574, No Iterations 4
time step continuity errors : sum local = 3.44857e-05, global = 2.80368e-18, cumulative = 4.53102e-19
Pressure gradient source: uncorrected Ubar = 0.999999, pressure gradient = 0.0043643
smoothSolver:  Solving for omega, Initial residual = 1.44344e-05, Final residual = 7.38856e-06, No Iterations 1
smoothSolver:  Solving for k, Initial residual = 0.00442978, Final residual = 0.000292119, No Iterations 5
ExecutionTime = 0.062848 s  ClockTime = 0 s

Time = 26s

smoothSolver:  Solving for Ux, Initial residual = 0.00457602, Final residual = 0.000400548, No Iterations 6
smoothSolver:  Solving for Uy, Initial residual = 0.433845, Final residual = 0.0201874, No Iterations 3
Pressure gradient source: uncorrected Ubar = 1, pressure gradient = 0.00434934
GAMG:  Solving for p, Initial residual = 0.0802987, Final residual = 0.00548748, No Iterations 4
time step continuity errors : sum local = 2.69877e-05, global = 1.09503e-17, cumulative = 1.14034e-17
Pressure gradient source: uncorrected Ubar = 0.999998, pressure gradient = 0.00438842
smoothSolver:  Solving for omega, Initial residual = 1.41309e-05, Final residual = 7.85999e-06, No Iterations 1
smoothSolver:  Solving for k, Initial residual = 0.00413101, Final residual = 0.000255985, No Iterations 5
ExecutionTime = 0.06493 s  ClockTime = 0 s

Time = 27s

smoothSolver:  Solving for Ux, Initial residual = 0.00446181, Final residual = 0.000387271, No Iterations 6
smoothSolver:  Solving for Uy, Initial residual = 0.437695, Final residual = 0.0200997, No Iterations 3
Pressure gradient source: uncorrected Ubar = 0.999997, pressure gradient = 0.00443443
GAMG:  Solving for p, Initial residual = 0.0799939, Final residual = 0.00461761, No Iterations 4
time step continuity errors : sum local = 1.97082e-05, global = 5.38046e-18, cumulative = 1.67838e-17
Pressure gradient source: uncorrected Ubar = 0.999998, pressure gradient = 0.00441838
smoothSolver:  Solving for omega, Initial residual = 1.37578e-05, Final residual = 7.49145e-06, No Iterations 1
smoothSolver:  Solving for k, Initial residual = 0.00390017, Final residual = 0.000257224, No Iterations 5
ExecutionTime = 0.066936 s  ClockTime = 0 s

Time = 28s

smoothSolver:  Solving for Ux, Initial residual = 0.00434816, Final residual = 0.000374097, No Iterations 6
smoothSolver:  Solving for Uy, Initial residual = 0.43593, Final residual = 0.0198409, No Iterations 3
Pressure gradient source: uncorrected Ubar = 0.999996, pressure gradient = 0.00447728
GAMG:  Solving for p, Initial residual = 0.0784832, Final residual = 0.0036653, No Iterations 4
time step continuity errors : sum local = 1.33923e-05, global = -5.10348e-18, cumulative = 1.16804e-17
Pressure gradient source: uncorrected Ubar = 0.999998, pressure gradient = 0.00444725
smoothSolver:  Solving for omega, Initial residual = 1.33572e-05, Final residual = 6.84228e-06, No Iterations 1
smoothSolver:  Solving for k, Initial residual = 0.00370372, Final residual = 0.000246972, No Iterations 5
ExecutionTime = 0.068928 s  ClockTime = 0 s

Time = 29s

smoothSolver:  Solving for Ux, Initial residual = 0.00423576, Final residual = 0.000360632, No Iterations 6
smoothSolver:  Solving for Uy, Initial residual = 0.429792, Final residual = 0.019165, No Iterations 3
Pressure gradient source: uncorrected Ubar = 0.999998, pressure gradient = 0.00447427
GAMG:  Solving for p, Initial residual = 0.0784318, Final residual = 0.00292604, No Iterations 4
time step continuity errors : sum local = 8.94655e-06, global = -5.84664e-19, cumulative = 1.10957e-17
Pressure gradient source: uncorrected Ubar = 0.999999, pressure gradient = 0.00446896
smoothSolver:  Solving for omega, Initial residual = 1.3234e-05, Final residual = 7.16203e-06, No Iterations 1
smoothSolver:  Solving for k, Initial residual = 0.00339214, Final residual = 0.000200461, No Iterations 5
ExecutionTime = 0.070934 s  ClockTime = 0 s

Time = 30s

smoothSolver:  Solving for Ux, Initial residual = 0.0041243, Final residual = 0.000347818, No Iterations 6
smoothSolver:  Solving for Uy, Initial residual = 0.410979, Final residual = 0.0189976, No Iterations 3
Pressure gradient source: uncorrected Ubar = 0.999995, pressure gradient = 0.00454536
GAMG:  Solving for p, Initial residual = 0.0786767, Final residual = 0.0078229, No Iterations 3
time step continuity errors : sum local = 1.9585e-05, global = 1.47349e-18, cumulative = 1.25692e-17
Pressure gradient source: uncorrected Ubar = 0.999998, pressure gradient = 0.00449494
smoothSolver:  Solving for omega, Initial residual = 1.29943e-05, Final residual = 6.99572e-06, No Iterations 1
smoothSolver:  Solving for k, Initial residual = 0.00317499, Final residual = 0.000189998, No Iterations 5
ExecutionTime = 0.072898 s  ClockTime = 0 s

Time = 31s

smoothSolver:  Solving for Ux, Initial residual = 0.00401934, Final residual = 0.000336201, No Iterations 6
smoothSolver:  Solving for Uy, Initial residual = 0.383071, Final residual = 0.0168657, No Iterations 3
Pressure gradient source: uncorrected Ubar = 0.999989, pressure gradient = 0.0046744
GAMG:  Solving for p, Initial residual = 0.0791828, Final residual = 0.00230616, No Iterations 4
time step continuity errors : sum local = 5.02001e-06, global = 6.78738e-18, cumulative = 1.93566e-17
Pressure gradient source: uncorrected Ubar = 0.999998, pressure gradient = 0.00453252
smoothSolver:  Solving for omega, Initial residual = 1.26662e-05, Final residual = 6.62499e-06, No Iterations 1
smoothSolver:  Solving for k, Initial residual = 0.00292823, Final residual = 0.000283362, No Iterations 4
ExecutionTime = 0.074951 s  ClockTime = 0 s

Time = 32s

smoothSolver:  Solving for Ux, Initial residual = 0.0039183, Final residual = 0.000325198, No Iterations 6
smoothSolver:  Solving for Uy, Initial residual = 0.345739, Final residual = 0.0158709, No Iterations 3
Pressure gradient source: uncorrected Ubar = 0.999988, pressure gradient = 0.00473467
GAMG:  Solving for p, Initial residual = 0.0821821, Final residual = 0.00317527, No Iterations 4
time step continuity errors : sum local = 5.84401e-06, global = -1.97952e-18, cumulative = 1.7377e-17
Pressure gradient source: uncorrected Ubar = 0.999998, pressure gradient = 0.00457087
smoothSolver:  Solving for omega, Initial residual = 1.25285e-05, Final residual = 6.69965e-06, No Iterations 1
smoothSolver:  Solving for k, Initial residual = 0.00278717, Final residual = 0.000177801, No Iterations 5
ExecutionTime = 0.077035 s  ClockTime = 0 s

Time = 33s

smoothSolver:  Solving for Ux, Initial residual = 0.00381164, Final residual = 0.000313721, No Iterations 6
smoothSolver:  Solving for Uy, Initial residual = 0.316159, Final residual = 0.0144087, No Iterations 3
Pressure gradient source: uncorrected Ubar = 0.99999, pressure gradient = 0.00473473
GAMG:  Solving for p, Initial residual = 0.0848251, Final residual = 0.00536495, No Iterations 4
time step continuity errors : sum local = 8.00939e-06, global = -1.51866e-17, cumulative = 2.19048e-18
Pressure gradient source: uncorrected Ubar = 0.999998, pressure gradient = 0.00460186
smoothSolver:  Solving for omega, Initial residual = 1.2279e-05, Final residual = 6.7219e-06, No Iterations 1
smoothSolver:  Solving for k, Initial residual = 0.00263382, Final residual = 0.000178436, No Iterations 5
ExecutionTime = 0.079249 s  ClockTime = 0 s

Time = 34s

smoothSolver:  Solving for Ux, Initial residual = 0.00370674, Final residual = 0.000302523, No Iterations 6
smoothSolver:  Solving for Uy, Initial residual = 0.286722, Final residual = 0.0137188, No Iterations 3
Pressure gradient source: uncorrected Ubar = 0.999992, pressure gradient = 0.00474822
GAMG:  Solving for p, Initial residual = 0.0858193, Final residual = 0.0056505, No Iterations 6
time step continuity errors : sum local = 7.2724e-06, global = 5.17272e-18, cumulative = 7.36321e-18
Pressure gradient source: uncorrected Ubar = 0.999998, pressure gradient = 0.00462829
smoothSolver:  Solving for omega, Initial residual = 1.19586e-05, Final residual = 6.20552e-06, No Iterations 1
smoothSolver:  Solving for k, Initial residual = 0.00248825, Final residual = 0.00017087, No Iterations 5
ExecutionTime = 0.081401 s  ClockTime = 0 s

Time = 35s

smoothSolver:  Solving for Ux, Initial residual = 0.00360515, Final residual = 0.000291632, No Iterations 6
smoothSolver:  Solving for Uy, Initial residual = 0.260106, Final residual = 0.0119466, No Iterations 3
Pressure gradient source: uncorrected Ubar = 0.999993, pressure gradient = 0.00475324
GAMG:  Solving for p, Initial residual = 0.0823022, Final residual = 0.00819257, No Iterations 6
time step continuity errors : sum local = 8.89193e-06, global = 6.13813e-18, cumulative = 1.35013e-17
Pressure gradient source: uncorrected Ubar = 0.999999, pressure gradient = 0.00464954
smoothSolver:  Solving for omega, Initial residual = 1.17878e-05, Final residual = 6.19478e-06, No Iterations 1
smoothSolver:  Solving for k, Initial residual = 0.00227558, Final residual = 0.000144875, No Iterations 5
ExecutionTime = 0.083463 s  ClockTime = 0 s

Time = 36s

smoothSolver:  Solving for Ux, Initial residual = 0.00351428, Final residual = 0.00028194, No Iterations 6
smoothSolver:  Solving for Uy, Initial residual = 0.235525, Final residual = 0.0112313, No Iterations 3
Pressure gradient source: uncorrected Ubar = 0.999989, pressure gradient = 0.00484661
GAMG:  Solving for p, Initial residual = 0.0722746, Final residual = 0.00712991, No Iterations 4
time step continuity errors : sum local = 7.33604e-06, global = 7.91183e-18, cumulative = 2.14132e-17
Pressure gradient source: uncorrected Ubar = 0.999998, pressure gradient = 0.00467842
smoothSolver:  Solving for omega, Initial residual = 1.15159e-05, Final residual = 6.28055e-06, No Iterations 1
smoothSolver:  Solving for k, Initial residual = 0.00215543, Final residual = 0.000146976, No Iterations 5
ExecutionTime = 0.085406 s  ClockTime = 0 s

Time = 37s

smoothSolver:  Solving for Ux, Initial residual = 0.00342448, Final residual = 0.000272692, No Iterations 6
smoothSolver:  Solving for Uy, Initial residual = 0.230758, Final residual = 0.0117756, No Iterations 3
Pressure gradient source: uncorrected Ubar = 0.999987, pressure gradient = 0.00491468
GAMG:  Solving for p, Initial residual = 0.0633975, Final residual = 0.00621382, No Iterations 6
time step continuity errors : sum local = 5.74076e-06, global = 1.09979e-17, cumulative = 3.24111e-17
Pressure gradient source: uncorrected Ubar = 0.999998, pressure gradient = 0.00471057
smoothSolver:  Solving for omega, Initial residual = 1.12181e-05, Final residual = 6.00949e-06, No Iterations 1
smoothSolver:  Solving for k, Initial residual = 0.00206062, Final residual = 0.000164092, No Iterations 5
ExecutionTime = 0.087385 s  ClockTime = 0 s

Time = 38s

smoothSolver:  Solving for Ux, Initial residual = 0.00333097, Final residual = 0.000262976, No Iterations 6
smoothSolver:  Solving for Uy, Initial residual = 0.213651, Final residual = 0.0108414, No Iterations 3
Pressure gradient source: uncorrected Ubar = 0.999992, pressure gradient = 0.00485167
GAMG:  Solving for p, Initial residual = 0.0559418, Final residual = 0.00463076, No Iterations 6
time step continuity errors : sum local = 4.01449e-06, global = 1.14829e-17, cumulative = 4.3894e-17
Pressure gradient source: uncorrected Ubar = 0.999999, pressure gradient = 0.00472807
smoothSolver:  Solving for omega, Initial residual = 1.09377e-05, Final residual = 5.79314e-06, No Iterations 1
smoothSolver:  Solving for k, Initial residual = 0.00194138, Final residual = 0.000144649, No Iterations 5
ExecutionTime = 0.089375 s  ClockTime = 0 s

Time = 39s

smoothSolver:  Solving for Ux, Initial residual = 0.00324792, Final residual = 0.000254379, No Iterations 6
smoothSolver:  Solving for Uy, Initial residual = 0.203466, Final residual = 0.0107887, No Iterations 3
Pressure gradient source: uncorrected Ubar = 0.999989, pressure gradient = 0.00493493
GAMG:  Solving for p, Initial residual = 0.0498189, Final residual = 0.00443942, No Iterations 4
time step continuity errors : sum local = 3.86143e-06, global = 5.98281e-18, cumulative = 4.98768e-17
Pressure gradient source: uncorrected Ubar = 0.999999, pressure gradient = 0.00475257
smoothSolver:  Solving for omega, Initial residual = 1.0681e-05, Final residual = 5.69027e-06, No Iterations 1
smoothSolver:  Solving for k, Initial residual = 0.00177769, Final residual = 0.000164371, No Iterations 4
ExecutionTime = 0.091318 s  ClockTime = 0 s

Time = 40s

smoothSolver:  Solving for Ux, Initial residual = 0.0031737, Final residual = 0.000247063, No Iterations 6
smoothSolver:  Solving for Uy, Initial residual = 0.210649, Final residual = 0.0125237, No Iterations 3
Pressure gradient source: uncorrected Ubar = 0.999985, pressure gradient = 0.00503493
GAMG:  Solving for p, Initial residual = 0.0469218, Final residual = 0.00353177, No Iterations 4
time step continuity errors : sum local = 2.84678e-06, global = -6.27777e-18, cumulative = 4.3599e-17
Pressure gradient source: uncorrected Ubar = 0.999998, pressure gradient = 0.0047856
smoothSolver:  Solving for omega, Initial residual = 1.04086e-05, Final residual = 5.71693e-06, No Iterations 1
smoothSolver:  Solving for k, Initial residual = 0.00174441, Final residual = 0.000123017, No Iterations 5
ExecutionTime = 0.093385 s  ClockTime = 0 s

Time = 41s

smoothSolver:  Solving for Ux, Initial residual = 0.00309346, Final residual = 0.000239084, No Iterations 6
smoothSolver:  Solving for Uy, Initial residual = 0.214274, Final residual = 0.0139995, No Iterations 3
Pressure gradient source: uncorrected Ubar = 0.999992, pressure gradient = 0.00494167
GAMG:  Solving for p, Initial residual = 0.0419758, Final residual = 0.00210425, No Iterations 4
time step continuity errors : sum local = 1.51733e-06, global = 5.18821e-19, cumulative = 4.41178e-17
Pressure gradient source: uncorrected Ubar = 0.999999, pressure gradient = 0.00480008
smoothSolver:  Solving for omega, Initial residual = 1.01098e-05, Final residual = 5.38167e-06, No Iterations 1
smoothSolver:  Solving for k, Initial residual = 0.00166152, Final residual = 0.000103081, No Iterations 5
ExecutionTime = 0.095634 s  ClockTime = 0 s

Time = 42s

smoothSolver:  Solving for Ux, Initial residual = 0.00302239, Final residual = 0.000232205, No Iterations 6
smoothSolver:  Solving for Uy, Initial residual = 0.1996, Final residual = 0.0132857, No Iterations 3
Pressure gradient source: uncorrected Ubar = 0.999988, pressure gradient = 0.0050375
GAMG:  Solving for p, Initial residual = 0.0415898, Final residual = 0.00376459, No Iterations 3
time step continuity errors : sum local = 2.39925e-06, global = -8.5112e-18, cumulative = 3.56066e-17
Pressure gradient source: uncorrected Ubar = 0.999999, pressure gradient = 0.00482406
smoothSolver:  Solving for omega, Initial residual = 9.84243e-06, Final residual = 9.84243e-06, No Iterations 0
smoothSolver:  Solving for k, Initial residual = 0.00164251, Final residual = 0.0001148, No Iterations 5
ExecutionTime = 0.097796 s  ClockTime = 0 s

Time = 43s

smoothSolver:  Solving for Ux, Initial residual = 0.00295923, Final residual = 0.000226005, No Iterations 6
smoothSolver:  Solving for Uy, Initial residual = 0.185997, Final residual = 0.0129261, No Iterations 3
Pressure gradient source: uncorrected Ubar = 0.999986, pressure gradient = 0.00508522
GAMG:  Solving for p, Initial residual = 0.039619, Final residual = 0.00188395, No Iterations 4
time step continuity errors : sum local = 1.13285e-06, global = 4.94787e-18, cumulative = 4.05545e-17
Pressure gradient source: uncorrected Ubar = 0.999999, pressure gradient = 0.00485009
smoothSolver:  Solving for omega, Initial residual = 1.1969e-05, Final residual = 5.94176e-06, No Iterations 1
smoothSolver:  Solving for k, Initial residual = 0.00154374, Final residual = 0.000146112, No Iterations 4
ExecutionTime = 0.099897 s  ClockTime = 0 s

Time = 44s

smoothSolver:  Solving for Ux, Initial residual = 0.00289775, Final residual = 0.000220199, No Iterations 6
smoothSolver:  Solving for Uy, Initial residual = 0.164034, Final residual = 0.0121167, No Iterations 3
Pressure gradient source: uncorrected Ubar = 0.999984, pressure gradient = 0.00516327
GAMG:  Solving for p, Initial residual = 0.0348687, Final residual = 0.00210218, No Iterations 5
time step continuity errors : sum local = 1.17986e-06, global = -2.28115e-18, cumulative = 3.82734e-17
Pressure gradient source: uncorrected Ubar = 0.999998, pressure gradient = 0.00488195
smoothSolver:  Solving for omega, Initial residual = 1.0065e-05, Final residual = 5.59764e-06, No Iterations 1
smoothSolver:  Solving for k, Initial residual = 0.00153794, Final residual = 0.000124147, No Iterations 5
ExecutionTime = 0.10195 s  ClockTime = 0 s

Time = 45s

smoothSolver:  Solving for Ux, Initial residual = 0.00282988, Final residual = 0.000213592, No Iterations 6
smoothSolver:  Solving for Uy, Initial residual = 0.149784, Final residual = 0.0112118, No Iterations 3
Pressure gradient source: uncorrected Ubar = 0.99999, pressure gradient = 0.00507082
GAMG:  Solving for p, Initial residual = 0.0357984, Final residual = 0.00315832, No Iterations 5
time step continuity errors : sum local = 1.59261e-06, global = -3.61241e-18, cumulative = 3.4661e-17
Pressure gradient source: uncorrected Ubar = 0.999999, pressure gradient = 0.00489584
smoothSolver:  Solving for omega, Initial residual = 9.93597e-06, Final residual = 9.93597e-06, No Iterations 0
smoothSolver:  Solving for k, Initial residual = 0.00159476, Final residual = 0.00013435, No Iterations 5
ExecutionTime = 0.103895 s  ClockTime = 0 s

Time = 46s

smoothSolver:  Solving for Ux, Initial residual = 0.00276958, Final residual = 0.000207776, No Iterations 6
smoothSolver:  Solving for Uy, Initial residual = 0.111705, Final residual = 0.00742725, No Iterations 3
Pressure gradient source: uncorrected Ubar = 0.99999, pressure gradient = 0.00509535
GAMG:  Solving for p, Initial residual = 0.0350981, Final residual = 0.00288535, No Iterations 7
time step continuity errors : sum local = 1.32876e-06, global = -9.57244e-18, cumulative = 2.50885e-17
Pressure gradient source: uncorrected Ubar = 0.999999, pressure gradient = 0.00491038
smoothSolver:  Solving for omega, Initial residual = 1.18151e-05, Final residual = 5.86587e-06, No Iterations 1
smoothSolver:  Solving for k, Initial residual = 0.00145786, Final residual = 9.74635e-05, No Iterations 5
ExecutionTime = 0.106013 s  ClockTime = 0 s

Time = 47s

smoothSolver:  Solving for Ux, Initial residual = 0.00271198, Final residual = 0.000202758, No Iterations 6
smoothSolver:  Solving for Uy, Initial residual = 0.0989301, Final residual = 0.00597297, No Iterations 3
Pressure gradient source: uncorrected Ubar = 0.999985, pressure gradient = 0.00520824
GAMG:  Solving for p, Initial residual = 0.0401272, Final residual = 0.00344056, No Iterations 7
time step continuity errors : sum local = 1.37807e-06, global = 9.68008e-18, cumulative = 3.47686e-17
Pressure gradient source: uncorrected Ubar = 0.999999, pressure gradient = 0.00493712
smoothSolver:  Solving for omega, Initial residual = 9.89351e-06, Final residual = 9.89351e-06, No Iterations 0
smoothSolver:  Solving for k, Initial residual = 0.00155027, Final residual = 0.000116331, No Iterations 5
ExecutionTime = 0.108105 s  ClockTime = 0 s

Time = 48s

smoothSolver:  Solving for Ux, Initial residual = 0.00266149, Final residual = 0.000197985, No Iterations 6
smoothSolver:  Solving for Uy, Initial residual = 0.108767, Final residual = 0.00681303, No Iterations 3
Pressure gradient source: uncorrected Ubar = 0.999986, pressure gradient = 0.00522126
GAMG:  Solving for p, Initial residual = 0.0351257, Final residual = 0.00266633, No Iterations 9
time step continuity errors : sum local = 1.04651e-06, global = -8.06455e-18, cumulative = 2.6704e-17
Pressure gradient source: uncorrected Ubar = 0.999999, pressure gradient = 0.00496144
smoothSolver:  Solving for omega, Initial residual = 1.13613e-05, Final residual = 6.06231e-06, No Iterations 1
smoothSolver:  Solving for k, Initial residual = 0.00143434, Final residual = 9.6849e-05, No Iterations 5
ExecutionTime = 0.110304 s  ClockTime = 0 s

Time = 49s

smoothSolver:  Solving for Ux, Initial residual = 0.00260669, Final residual = 0.000193286, No Iterations 6
smoothSolver:  Solving for Uy, Initial residual = 0.0798271, Final residual = 0.00426332, No Iterations 3
Pressure gradient source: uncorrected Ubar = 0.999985, pressure gradient = 0.00525906
GAMG:  Solving for p, Initial residual = 0.0333997, Final residual = 0.00270856, No Iterations 8
time step continuity errors : sum local = 8.83711e-07, global = 3.08888e-18, cumulative = 2.97929e-17
Pressure gradient source: uncorrected Ubar = 0.999999, pressure gradient = 0.00498667
smoothSolver:  Solving for omega, Initial residual = 9.94241e-06, Final residual = 9.94241e-06, No Iterations 0
smoothSolver:  Solving for k, Initial residual = 0.00153142, Final residual = 0.000109893, No Iterations 5
ExecutionTime = 0.11264 s  ClockTime = 0 s

Time = 50s

smoothSolver:  Solving for Ux, Initial residual = 0.00255717, Final residual = 0.000188653, No Iterations 6
smoothSolver:  Solving for Uy, Initial residual = 0.102814, Final residual = 0.00880814, No Iterations 3
Pressure gradient source: uncorrected Ubar = 0.999987, pressure gradient = 0.00524779
GAMG:  Solving for p, Initial residual = 0.0436513, Final residual = 0.00387533, No Iterations 3
time step continuity errors : sum local = 1.21804e-06, global = -1.64496e-18, cumulative = 2.8148e-17
Pressure gradient source: uncorrected Ubar = 0.999999, pressure gradient = 0.00500665
smoothSolver:  Solving for omega, Initial residual = 1.15387e-05, Final residual = 6.02184e-06, No Iterations 1
smoothSolver:  Solving for k, Initial residual = 0.00146341, Final residual = 0.000132078, No Iterations 5
ExecutionTime = 0.114682 s  ClockTime = 0 s

Time = 51s

smoothSolver:  Solving for Ux, Initial residual = 0.00250413, Final residual = 0.000184254, No Iterations 6
smoothSolver:  Solving for Uy, Initial residual = 0.102099, Final residual = 0.00737488, No Iterations 3
Pressure gradient source: uncorrected Ubar = 0.999986, pressure gradient = 0.00528088
GAMG:  Solving for p, Initial residual = 0.0398981, Final residual = 0.00205302, No Iterations 5
time step continuity errors : sum local = 6.82293e-07, global = 5.61191e-18, cumulative = 3.37599e-17
Pressure gradient source: uncorrected Ubar = 0.999999, pressure gradient = 0.00502762
smoothSolver:  Solving for omega, Initial residual = 9.79266e-06, Final residual = 9.79266e-06, No Iterations 0
smoothSolver:  Solving for k, Initial residual = 0.00153222, Final residual = 0.000125748, No Iterations 5
ExecutionTime = 0.116698 s  ClockTime = 0 s

Time = 52s

smoothSolver:  Solving for Ux, Initial residual = 0.00245927, Final residual = 0.000179782, No Iterations 6
smoothSolver:  Solving for Uy, Initial residual = 0.112673, Final residual = 0.00826676, No Iterations 3
Pressure gradient source: uncorrected Ubar = 0.999987, pressure gradient = 0.00528766
GAMG:  Solving for p, Initial residual = 0.0522972, Final residual = 0.00407128, No Iterations 3
time step continuity errors : sum local = 1.12429e-06, global = -5.55848e-18, cumulative = 2.82014e-17
Pressure gradient source: uncorrected Ubar = 0.999999, pressure gradient = 0.00504643
smoothSolver:  Solving for omega, Initial residual = 1.11511e-05, Final residual = 5.77978e-06, No Iterations 1
smoothSolver:  Solving for k, Initial residual = 0.00146656, Final residual = 9.12831e-05, No Iterations 5
ExecutionTime = 0.1186 s  ClockTime = 0 s

Time = 53s

smoothSolver:  Solving for Ux, Initial residual = 0.00241182, Final residual = 0.000176145, No Iterations 6
smoothSolver:  Solving for Uy, Initial residual = 0.0852592, Final residual = 0.00487259, No Iterations 3
Pressure gradient source: uncorrected Ubar = 0.999986, pressure gradient = 0.00533295
GAMG:  Solving for p, Initial residual = 0.0434511, Final residual = 0.00382142, No Iterations 6
time step continuity errors : sum local = 1.19806e-06, global = 5.75209e-18, cumulative = 3.39535e-17
Pressure gradient source: uncorrected Ubar = 0.999999, pressure gradient = 0.00506815
smoothSolver:  Solving for omega, Initial residual = 9.6971e-06, Final residual = 9.6971e-06, No Iterations 0
smoothSolver:  Solving for k, Initial residual = 0.00159827, Final residual = 0.000140533, No Iterations 5
ExecutionTime = 0.120735 s  ClockTime = 0 s

Time = 54s

smoothSolver:  Solving for Ux, Initial residual = 0.00236007, Final residual = 0.000171179, No Iterations 6
smoothSolver:  Solving for Uy, Initial residual = 0.113905, Final residual = 0.0107545, No Iterations 3
Pressure gradient source: uncorrected Ubar = 0.99999, pressure gradient = 0.00526706
GAMG:  Solving for p, Initial residual = 0.047245, Final residual = 0.00304899, No Iterations 3
time step continuity errors : sum local = 8.13421e-07, global = 4.99761e-18, cumulative = 3.89511e-17
Pressure gradient source: uncorrected Ubar = 1, pressure gradient = 0.00507788
smoothSolver:  Solving for omega, Initial residual = 1.09824e-05, Final residual = 5.97e-06, No Iterations 1
smoothSolver:  Solving for k, Initial residual = 0.00155855, Final residual = 0.000133069, No Iterations 5
ExecutionTime = 0.122673 s  ClockTime = 0 s

Time = 55s

smoothSolver:  Solving for Ux, Initial residual = 0.00231767, Final residual = 0.000168004, No Iterations 6
smoothSolver:  Solving for Uy, Initial residual = 0.0956998, Final residual = 0.0080781, No Iterations 3
Pressure gradient source: uncorrected Ubar = 0.999985, pressure gradient = 0.00538083
GAMG:  Solving for p, Initial residual = 0.0353407, Final residual = 0.00154605, No Iterations 3
time step continuity errors : sum local = 4.24557e-07, global = 1.26328e-17, cumulative = 5.15839e-17
Pressure gradient source: uncorrected Ubar = 0.999999, pressure gradient = 0.00510106
smoothSolver:  Solving for omega, Initial residual = 9.41227e-06, Final residual = 9.41227e-06, No Iterations 0
smoothSolver:  Solving for k, Initial residual = 0.00165431, Final residual = 0.000110718, No Iterations 6
ExecutionTime = 0.124566 s  ClockTime = 0 s

Time = 56s

smoothSolver:  Solving for Ux, Initial residual = 0.00223753, Final residual = 0.00016175, No Iterations 6
smoothSolver:  Solving for Uy, Initial residual = 0.134436, Final residual = 0.0131349, No Iterations 3
Pressure gradient source: uncorrected Ubar = 0.999993, pressure gradient = 0.00523682
GAMG:  Solving for p, Initial residual = 0.0358349, Final residual = 0.00299638, No Iterations 3
time step continuity errors : sum local = 8.35196e-07, global = -2.93156e-18, cumulative = 4.86524e-17
Pressure gradient source: uncorrected Ubar = 1, pressure gradient = 0.00510171
smoothSolver:  Solving for omega, Initial residual = 1.05929e-05, Final residual = 5.79741e-06, No Iterations 1
smoothSolver:  Solving for k, Initial residual = 0.00168977, Final residual = 0.000114576, No Iterations 6
ExecutionTime = 0.126555 s  ClockTime = 0 s

Time = 57s

smoothSolver:  Solving for Ux, Initial residual = 0.00219943, Final residual = 0.000158757, No Iterations 6
smoothSolver:  Solving for Uy, Initial residual = 0.153485, Final residual = 0.0142108, No Iterations 3
Pressure gradient source: uncorrected Ubar = 0.999986, pressure gradient = 0.005382
GAMG:  Solving for p, Initial residual = 0.0426404, Final residual = 0.00275876, No Iterations 4
time step continuity errors : sum local = 7.9158e-07, global = -5.86417e-18, cumulative = 4.27882e-17
Pressure gradient source: uncorrected Ubar = 0.999999, pressure gradient = 0.00512132
smoothSolver:  Solving for omega, Initial residual = 9.20244e-06, Final residual = 9.20244e-06, No Iterations 0
smoothSolver:  Solving for k, Initial residual = 0.00171429, Final residual = 0.000150032, No Iterations 5
ExecutionTime = 0.128763 s  ClockTime = 0 s

Time = 58s

smoothSolver:  Solving for Ux, Initial residual = 0.00212608, Final residual = 0.000152639, No Iterations 6
smoothSolver:  Solving for Uy, Initial residual = 0.0977379, Final residual = 0.00865857, No Iterations 3
Pressure gradient source: uncorrected Ubar = 0.999993, pressure gradient = 0.00526396
GAMG:  Solving for p, Initial residual = 0.0311208, Final residual = 0.00166891, No Iterations 3
time step continuity errors : sum local = 4.61947e-07, global = 4.32461e-18, cumulative = 4.71128e-17
Pressure gradient source: uncorrected Ubar = 1, pressure gradient = 0.00512244
smoothSolver:  Solving for omega, Initial residual = 1.02993e-05, Final residual = 5.54225e-06, No Iterations 1
smoothSolver:  Solving for k, Initial residual = 0.00174942, Final residual = 0.000119535, No Iterations 5
ExecutionTime = 0.130821 s  ClockTime = 0 s

Time = 59s

smoothSolver:  Solving for Ux, Initial residual = 0.00209557, Final residual = 0.0001501, No Iterations 6
smoothSolver:  Solving for Uy, Initial residual = 0.0712296, Final residual = 0.00605354, No Iterations 3
Pressure gradient source: uncorrected Ubar = 0.999987, pressure gradient = 0.00538737
GAMG:  Solving for p, Initial residual = 0.0334828, Final residual = 0.00228228, No Iterations 7
time step continuity errors : sum local = 6.95573e-07, global = 6.64858e-18, cumulative = 5.37614e-17
Pressure gradient source: uncorrected Ubar = 0.999999, pressure gradient = 0.00513964
smoothSolver:  Solving for omega, Initial residual = 8.92685e-06, Final residual = 8.92685e-06, No Iterations 0
smoothSolver:  Solving for k, Initial residual = 0.00182981, Final residual = 0.000157436, No Iterations 5
ExecutionTime = 0.132925 s  ClockTime = 0 s

Time = 60s

smoothSolver:  Solving for Ux, Initial residual = 0.00202586, Final residual = 0.000144367, No Iterations 6
smoothSolver:  Solving for Uy, Initial residual = 0.0840895, Final residual = 0.00801383, No Iterations 3
Pressure gradient source: uncorrected Ubar = 0.999994, pressure gradient = 0.00527078
GAMG:  Solving for p, Initial residual = 0.0297492, Final residual = 0.00297015, No Iterations 6
time step continuity errors : sum local = 9.31853e-07, global = 1.00316e-18, cumulative = 5.47645e-17
Pressure gradient source: uncorrected Ubar = 1, pressure gradient = 0.00513899
smoothSolver:  Solving for omega, Initial residual = 9.94281e-06, Final residual = 9.94281e-06, No Iterations 0
smoothSolver:  Solving for k, Initial residual = 0.00209403, Final residual = 0.000181094, No Iterations 5
ExecutionTime = 0.134897 s  ClockTime = 0 s

Time = 61s

smoothSolver:  Solving for Ux, Initial residual = 0.00195622, Final residual = 0.000138672, No Iterations 6
smoothSolver:  Solving for Uy, Initial residual = 0.105529, Final residual = 0.00584591, No Iterations 4
Pressure gradient source: uncorrected Ubar = 0.999993, pressure gradient = 0.00528149
GAMG:  Solving for p, Initial residual = 0.0281052, Final residual = 0.00204377, No Iterations 8
time step continuity errors : sum local = 6.15733e-07, global = 3.43103e-18, cumulative = 5.81956e-17
Pressure gradient source: uncorrected Ubar = 1, pressure gradient = 0.00514003
smoothSolver:  Solving for omega, Initial residual = 1.08837e-05, Final residual = 5.67062e-06, No Iterations 1
smoothSolver:  Solving for k, Initial residual = 0.002148, Final residual = 0.000211693, No Iterations 5
ExecutionTime = 0.136965 s  ClockTime = 0 s

Time = 62s

smoothSolver:  Solving for Ux, Initial residual = 0.00191951, Final residual = 0.000136114, No Iterations 6
smoothSolver:  Solving for Uy, Initial residual = 0.122734, Final residual = 0.00630818, No Iterations 4
Pressure gradient source: uncorrected Ubar = 0.999987, pressure gradient = 0.00540424
GAMG:  Solving for p, Initial residual = 0.0346436, Final residual = 0.00252632, No Iterations 8
time step continuity errors : sum local = 7.39606e-07, global = -7.17648e-18, cumulative = 5.10191e-17
Pressure gradient source: uncorrected Ubar = 0.999999, pressure gradient = 0.00515724
smoothSolver:  Solving for omega, Initial residual = 9.07868e-06, Final residual = 9.07868e-06, No Iterations 0
smoothSolver:  Solving for k, Initial residual = 0.00217729, Final residual = 0.000213067, No Iterations 5
ExecutionTime = 0.139029 s  ClockTime = 0 s

Time = 63s

smoothSolver:  Solving for Ux, Initial residual = 0.0018489, Final residual = 0.000130461, No Iterations 6
smoothSolver:  Solving for Uy, Initial residual = 0.113507, Final residual = 0.00661347, No Iterations 4
Pressure gradient source: uncorrected Ubar = 0.999994, pressure gradient = 0.0052738
GAMG:  Solving for p, Initial residual = 0.0283393, Final residual = 0.00224712, No Iterations 8
time step continuity errors : sum local = 6.62384e-07, global = 4.31323e-18, cumulative = 5.53323e-17
Pressure gradient source: uncorrected Ubar = 1, pressure gradient = 0.00515492
smoothSolver:  Solving for omega, Initial residual = 9.74405e-06, Final residual = 9.74405e-06, No Iterations 0
smoothSolver:  Solving for k, Initial residual = 0.00242551, Final residual = 0.000193896, No Iterations 5
ExecutionTime = 0.141097 s  ClockTime = 0 s

Time = 64s

smoothSolver:  Solving for Ux, Initial residual = 0.00178284, Final residual = 0.000125073, No Iterations 6
smoothSolver:  Solving for Uy, Initial residual = 0.124785, Final residual = 0.00638651, No Iterations 4
Pressure gradient source: uncorrected Ubar = 0.999993, pressure gradient = 0.00529424
GAMG:  Solving for p, Initial residual = 0.0323438, Final residual = 0.00300748, No Iterations 7
time step continuity errors : sum local = 7.51987e-07, global = 3.44303e-18, cumulative = 5.87754e-17
Pressure gradient source: uncorrected Ubar = 1, pressure gradient = 0.00515596
smoothSolver:  Solving for omega, Initial residual = 1.05661e-05, Final residual = 5.70226e-06, No Iterations 1
smoothSolver:  Solving for k, Initial residual = 0.00250188, Final residual = 0.000242988, No Iterations 5
ExecutionTime = 0.143551 s  ClockTime = 0 s

Time = 65s

smoothSolver:  Solving for Ux, Initial residual = 0.00175598, Final residual = 0.000123222, No Iterations 6
smoothSolver:  Solving for Uy, Initial residual = 0.115702, Final residual = 0.0102541, No Iterations 3
Pressure gradient source: uncorrected Ubar = 0.999986, pressure gradient = 0.00543766
GAMG:  Solving for p, Initial residual = 0.0418458, Final residual = 0.00416199, No Iterations 6
time step continuity errors : sum local = 1.14579e-06, global = -1.16567e-17, cumulative = 4.71186e-17
Pressure gradient source: uncorrected Ubar = 0.999999, pressure gradient = 0.00517605
smoothSolver:  Solving for omega, Initial residual = 8.95304e-06, Final residual = 8.95304e-06, No Iterations 0
smoothSolver:  Solving for k, Initial residual = 0.0025303, Final residual = 0.000174969, No Iterations 6
ExecutionTime = 0.145845 s  ClockTime = 0 s

Time = 66s

smoothSolver:  Solving for Ux, Initial residual = 0.00168499, Final residual = 0.000117933, No Iterations 6
smoothSolver:  Solving for Uy, Initial residual = 0.136971, Final residual = 0.0116336, No Iterations 3
Pressure gradient source: uncorrected Ubar = 0.999994, pressure gradient = 0.00529003
GAMG:  Solving for p, Initial residual = 0.0365188, Final residual = 0.00278436, No Iterations 6
time step continuity errors : sum local = 6.99849e-07, global = 6.09497e-18, cumulative = 5.32136e-17
Pressure gradient source: uncorrected Ubar = 1, pressure gradient = 0.00517407
smoothSolver:  Solving for omega, Initial residual = 9.67582e-06, Final residual = 9.67582e-06, No Iterations 0
smoothSolver:  Solving for k, Initial residual = 0.0027688, Final residual = 0.000191709, No Iterations 6
ExecutionTime = 0.147985 s  ClockTime = 0 s

Time = 67s

smoothSolver:  Solving for Ux, Initial residual = 0.0016146, Final residual = 0.000112417, No Iterations 6
smoothSolver:  Solving for Uy, Initial residual = 0.104997, Final residual = 0.00950378, No Iterations 3
Pressure gradient source: uncorrected Ubar = 0.999994, pressure gradient = 0.0053012
GAMG:  Solving for p, Initial residual = 0.024788, Final residual = 0.00166694, No Iterations 8
time step continuity errors : sum local = 3.85455e-07, global = 3.15705e-18, cumulative = 5.63706e-17
Pressure gradient source: uncorrected Ubar = 1, pressure gradient = 0.00517426
smoothSolver:  Solving for omega, Initial residual = 1.0388e-05, Final residual = 5.62959e-06, No Iterations 1
smoothSolver:  Solving for k, Initial residual = 0.00273596, Final residual = 0.000269705, No Iterations 5
ExecutionTime = 0.150162 s  ClockTime = 0 s

Time = 68s

smoothSolver:  Solving for Ux, Initial residual = 0.00158429, Final residual = 0.000110451, No Iterations 6
smoothSolver:  Solving for Uy, Initial residual = 0.0964966, Final residual = 0.00518965, No Iterations 3
Pressure gradient source: uncorrected Ubar = 0.999988, pressure gradient = 0.00541741
GAMG:  Solving for p, Initial residual = 0.0480345, Final residual = 0.00465155, No Iterations 4
time step continuity errors : sum local = 1.00109e-06, global = 4.38714e-19, cumulative = 5.68093e-17
Pressure gradient source: uncorrected Ubar = 0.999999, pressure gradient = 0.00519001
smoothSolver:  Solving for omega, Initial residual = 8.77309e-06, Final residual = 8.77309e-06, No Iterations 0
smoothSolver:  Solving for k, Initial residual = 0.00270754, Final residual = 0.000213974, No Iterations 5
ExecutionTime = 0.152149 s  ClockTime = 0 s

Time = 69s

smoothSolver:  Solving for Ux, Initial residual = 0.00152402, Final residual = 0.00010593, No Iterations 6
smoothSolver:  Solving for Uy, Initial residual = 0.1284, Final residual = 0.00864923, No Iterations 3
Pressure gradient source: uncorrected Ubar = 0.999994, pressure gradient = 0.00530922
GAMG:  Solving for p, Initial residual = 0.044953, Final residual = 0.0044803, No Iterations 4
time step continuity errors : sum local = 9.57546e-07, global = 2.10497e-18, cumulative = 5.89143e-17
Pressure gradient source: uncorrected Ubar = 1, pressure gradient = 0.00518959
smoothSolver:  Solving for omega, Initial residual = 9.31426e-06, Final residual = 9.31426e-06, No Iterations 0
smoothSolver:  Solving for k, Initial residual = 0.00294313, Final residual = 0.000291677, No Iterations 5
ExecutionTime = 0.154071 s  ClockTime = 0 s

Time = 70s

smoothSolver:  Solving for Ux, Initial residual = 0.00145954, Final residual = 0.000100826, No Iterations 6
smoothSolver:  Solving for Uy, Initial residual = 0.125005, Final residual = 0.00968866, No Iterations 3
Pressure gradient source: uncorrected Ubar = 0.999995, pressure gradient = 0.00529163
GAMG:  Solving for p, Initial residual = 0.0283497, Final residual = 0.00222536, No Iterations 5
time step continuity errors : sum local = 4.62665e-07, global = 1.97085e-18, cumulative = 6.08852e-17
Pressure gradient source: uncorrected Ubar = 1, pressure gradient = 0.00518732
smoothSolver:  Solving for omega, Initial residual = 9.92288e-06, Final residual = 9.92288e-06, No Iterations 0
smoothSolver:  Solving for k, Initial residual = 0.00315643, Final residual = 0.00021428, No Iterations 6
ExecutionTime = 0.156023 s  ClockTime = 0 s

Time = 71s

smoothSolver:  Solving for Ux, Initial residual = 0.00139277, Final residual = 9.56616e-05, No Iterations 6
smoothSolver:  Solving for Uy, Initial residual = 0.107504, Final residual = 0.00870438, No Iterations 3
Pressure gradient source: uncorrected Ubar = 0.999995, pressure gradient = 0.00528702
GAMG:  Solving for p, Initial residual = 0.0327338, Final residual = 0.00318935, No Iterations 6
time step continuity errors : sum local = 7.29195e-07, global = -8.94542e-18, cumulative = 5.19397e-17
Pressure gradient source: uncorrected Ubar = 1, pressure gradient = 0.00518535
smoothSolver:  Solving for omega, Initial residual = 1.05111e-05, Final residual = 5.59746e-06, No Iterations 1
smoothSolver:  Solving for k, Initial residual = 0.00310028, Final residual = 0.00028079, No Iterations 5
ExecutionTime = 0.158376 s  ClockTime = 0 s

Time = 72s

smoothSolver:  Solving for Ux, Initial residual = 0.00136845, Final residual = 9.43455e-05, No Iterations 6
smoothSolver:  Solving for Uy, Initial residual = 0.185083, Final residual = 0.0137824, No Iterations 3
Pressure gradient source: uncorrected Ubar = 0.999987, pressure gradient = 0.00544701
GAMG:  Solving for p, Initial residual = 0.0496282, Final residual = 0.00470763, No Iterations 3
time step continuity errors : sum local = 9.84482e-07, global = -3.02029e-18, cumulative = 4.89195e-17
Pressure gradient source: uncorrected Ubar = 0.999999, pressure gradient = 0.00520521
smoothSolver:  Solving for omega, Initial residual = 8.84401e-06, Final residual = 8.84401e-06, No Iterations 0
smoothSolver:  Solving for k, Initial residual = 0.00301122, Final residual = 0.000219703, No Iterations 5
ExecutionTime = 0.160431 s  ClockTime = 0 s

Time = 73s

smoothSolver:  Solving for Ux, Initial residual = 0.00130604, Final residual = 9.01891e-05, No Iterations 6
smoothSolver:  Solving for Uy, Initial residual = 0.243403, Final residual = 0.0219439, No Iterations 3
Pressure gradient source: uncorrected Ubar = 0.999994, pressure gradient = 0.00533061
GAMG:  Solving for p, Initial residual = 0.0497313, Final residual = 0.00431567, No Iterations 7
time step continuity errors : sum local = 9.12319e-07, global = 2.13908e-18, cumulative = 5.10585e-17
Pressure gradient source: uncorrected Ubar = 1, pressure gradient = 0.00520733
smoothSolver:  Solving for omega, Initial residual = 9.20489e-06, Final residual = 9.20489e-06, No Iterations 0
smoothSolver:  Solving for k, Initial residual = 0.00320611, Final residual = 0.000291174, No Iterations 5
ExecutionTime = 0.162611 s  ClockTime = 0 s

Time = 74s

smoothSolver:  Solving for Ux, Initial residual = 0.00125105, Final residual = 8.59828e-05, No Iterations 6
smoothSolver:  Solving for Uy, Initial residual = 0.266117, Final residual = 0.0116575, No Iterations 4
Pressure gradient source: uncorrected Ubar = 0.999994, pressure gradient = 0.0053213
GAMG:  Solving for p, Initial residual = 0.0550077, Final residual = 0.00384122, No Iterations 9
time step continuity errors : sum local = 7.47216e-07, global = -2.91884e-18, cumulative = 4.81397e-17
Pressure gradient source: uncorrected Ubar = 1, pressure gradient = 0.00520857
smoothSolver:  Solving for omega, Initial residual = 9.65915e-06, Final residual = 9.65915e-06, No Iterations 0
smoothSolver:  Solving for k, Initial residual = 0.00332723, Final residual = 0.00026856, No Iterations 5
ExecutionTime = 0.164841 s  ClockTime = 0 s

Time = 75s

smoothSolver:  Solving for Ux, Initial residual = 0.00119106, Final residual = 8.16626e-05, No Iterations 6
smoothSolver:  Solving for Uy, Initial residual = 0.136467, Final residual = 0.00993525, No Iterations 3
Pressure gradient source: uncorrected Ubar = 0.999995, pressure gradient = 0.00530234
GAMG:  Solving for p, Initial residual = 0.0341662, Final residual = 0.00257862, No Iterations 8
time step continuity errors : sum local = 4.7315e-07, global = 6.92691e-18, cumulative = 5.50666e-17
Pressure gradient source: uncorrected Ubar = 1, pressure gradient = 0.00520772
smoothSolver:  Solving for omega, Initial residual = 1.01076e-05, Final residual = 5.61441e-06, No Iterations 1
smoothSolver:  Solving for k, Initial residual = 0.00326549, Final residual = 0.00020926, No Iterations 6
ExecutionTime = 0.166989 s  ClockTime = 0 s

Time = 76s

smoothSolver:  Solving for Ux, Initial residual = 0.00116128, Final residual = 8.00215e-05, No Iterations 6
smoothSolver:  Solving for Uy, Initial residual = 0.151674, Final residual = 0.01082, No Iterations 3
Pressure gradient source: uncorrected Ubar = 0.999989, pressure gradient = 0.00541784
GAMG:  Solving for p, Initial residual = 0.0568793, Final residual = 0.00326777, No Iterations 4
time step continuity errors : sum local = 5.63842e-07, global = -3.22491e-18, cumulative = 5.18417e-17
Pressure gradient source: uncorrected Ubar = 0.999999, pressure gradient = 0.00522252
smoothSolver:  Solving for omega, Initial residual = 8.62331e-06, Final residual = 8.62331e-06, No Iterations 0
smoothSolver:  Solving for k, Initial residual = 0.00318889, Final residual = 0.000299552, No Iterations 5
ExecutionTime = 0.169015 s  ClockTime = 0 s

Time = 77s

smoothSolver:  Solving for Ux, Initial residual = 0.00110057, Final residual = 7.58978e-05, No Iterations 6
smoothSolver:  Solving for Uy, Initial residual = 0.149836, Final residual = 0.0121606, No Iterations 3
Pressure gradient source: uncorrected Ubar = 0.999995, pressure gradient = 0.00532257
GAMG:  Solving for p, Initial residual = 0.0404767, Final residual = 0.00367124, No Iterations 3
time step continuity errors : sum local = 6.25541e-07, global = -1.39981e-18, cumulative = 5.04419e-17
Pressure gradient source: uncorrected Ubar = 1, pressure gradient = 0.0052232
smoothSolver:  Solving for omega, Initial residual = 8.962e-06, Final residual = 8.962e-06, No Iterations 0
smoothSolver:  Solving for k, Initial residual = 0.00336487, Final residual = 0.000247013, No Iterations 6
ExecutionTime = 0.170906 s  ClockTime = 0 s

Time = 78s

smoothSolver:  Solving for Ux, Initial residual = 0.00103861, Final residual = 7.15105e-05, No Iterations 6
smoothSolver:  Solving for Uy, Initial residual = 0.163614, Final residual = 0.0159754, No Iterations 3
Pressure gradient source: uncorrected Ubar = 0.999996, pressure gradient = 0.0053091
GAMG:  Solving for p, Initial residual = 0.035293, Final residual = 0.00308195, No Iterations 3
time step continuity errors : sum local = 5.29117e-07, global = -1.38803e-18, cumulative = 4.90539e-17
Pressure gradient source: uncorrected Ubar = 1, pressure gradient = 0.00522261
smoothSolver:  Solving for omega, Initial residual = 9.35605e-06, Final residual = 9.35605e-06, No Iterations 0
smoothSolver:  Solving for k, Initial residual = 0.00339698, Final residual = 0.000243006, No Iterations 5
ExecutionTime = 0.172944 s  ClockTime = 0 s

Time = 79s

smoothSolver:  Solving for Ux, Initial residual = 0.000986078, Final residual = 6.76085e-05, No Iterations 6
smoothSolver:  Solving for Uy, Initial residual = 0.236894, Final residual = 0.0169487, No Iterations 3
Pressure gradient source: uncorrected Ubar = 0.999996, pressure gradient = 0.00529269
GAMG:  Solving for p, Initial residual = 0.0708996, Final residual = 0.00548248, No Iterations 3
time step continuity errors : sum local = 9.61024e-07, global = 5.13421e-19, cumulative = 4.95673e-17
Pressure gradient source: uncorrected Ubar = 1, pressure gradient = 0.00522043
smoothSolver:  Solving for omega, Initial residual = 9.7172e-06, Final residual = 9.7172e-06, No Iterations 0
smoothSolver:  Solving for k, Initial residual = 0.00352614, Final residual = 0.000287783, No Iterations 5
ExecutionTime = 0.174861 s  ClockTime = 0 s

Time = 80s

smoothSolver:  Solving for Ux, Initial residual = 0.000933167, Final residual = 6.35579e-05, No Iterations 6
smoothSolver:  Solving for Uy, Initial residual = 0.180205, Final residual = 0.0119412, No Iterations 3
Pressure gradient source: uncorrected Ubar = 0.999997, pressure gradient = 0.00527664
GAMG:  Solving for p, Initial residual = 0.0467571, Final residual = 0.0033512, No Iterations 6
time step continuity errors : sum local = 6.23631e-07, global = -7.29244e-18, cumulative = 4.22748e-17
Pressure gradient source: uncorrected Ubar = 1, pressure gradient = 0.00521693
smoothSolver:  Solving for omega, Initial residual = 1.00573e-05, Final residual = 5.57281e-06, No Iterations 1
smoothSolver:  Solving for k, Initial residual = 0.00338467, Final residual = 0.000248451, No Iterations 5
ExecutionTime = 0.177021 s  ClockTime = 0 s

Time = 81s

smoothSolver:  Solving for Ux, Initial residual = 0.000914906, Final residual = 6.2803e-05, No Iterations 6
smoothSolver:  Solving for Uy, Initial residual = 0.284959, Final residual = 0.0208374, No Iterations 3
Pressure gradient source: uncorrected Ubar = 0.99999, pressure gradient = 0.00541109
GAMG:  Solving for p, Initial residual = 0.0733757, Final residual = 0.00666772, No Iterations 5
time step continuity errors : sum local = 1.28445e-06, global = -2.43039e-18, cumulative = 3.98445e-17
Pressure gradient source: uncorrected Ubar = 0.999999, pressure gradient = 0.00523197
smoothSolver:  Solving for omega, Initial residual = 8.51486e-06, Final residual = 8.51486e-06, No Iterations 0
smoothSolver:  Solving for k, Initial residual = 0.00321665, Final residual = 0.000303901, No Iterations 4
ExecutionTime = 0.179409 s  ClockTime = 0 s

Time = 82s

smoothSolver:  Solving for Ux, Initial residual = 0.000867027, Final residual = 5.95317e-05, No Iterations 6
smoothSolver:  Solving for Uy, Initial residual = 0.214077, Final residual = 0.0177793, No Iterations 3
Pressure gradient source: uncorrected Ubar = 0.999997, pressure gradient = 0.00527901
GAMG:  Solving for p, Initial residual = 0.0577059, Final residual = 0.00574652, No Iterations 5
time step continuity errors : sum local = 1.00755e-06, global = -5.43627e-18, cumulative = 3.44082e-17
Pressure gradient source: uncorrected Ubar = 1, pressure gradient = 0.00522786
smoothSolver:  Solving for omega, Initial residual = 8.7688e-06, Final residual = 8.7688e-06, No Iterations 0
smoothSolver:  Solving for k, Initial residual = 0.00342323, Final residual = 0.000249431, No Iterations 6
ExecutionTime = 0.181577 s  ClockTime = 0 s

Time = 83s

smoothSolver:  Solving for Ux, Initial residual = 0.000807748, Final residual = 5.53334e-05, No Iterations 6
smoothSolver:  Solving for Uy, Initial residual = 0.183007, Final residual = 0.0148579, No Iterations 3
Pressure gradient source: uncorrected Ubar = 0.999997, pressure gradient = 0.00527942
GAMG:  Solving for p, Initial residual = 0.038808, Final residual = 0.00354345, No Iterations 5
time step continuity errors : sum local = 6.08014e-07, global = 6.78272e-18, cumulative = 4.11909e-17
Pressure gradient source: uncorrected Ubar = 1, pressure gradient = 0.00522501
smoothSolver:  Solving for omega, Initial residual = 9.00409e-06, Final residual = 9.00409e-06, No Iterations 0
smoothSolver:  Solving for k, Initial residual = 0.00349576, Final residual = 0.000241145, No Iterations 6
ExecutionTime = 0.183602 s  ClockTime = 0 s

Time = 84s

smoothSolver:  Solving for Ux, Initial residual = 0.000748468, Final residual = 5.11589e-05, No Iterations 6
smoothSolver:  Solving for Uy, Initial residual = 0.200091, Final residual = 0.011605, No Iterations 3
Pressure gradient source: uncorrected Ubar = 0.999998, pressure gradient = 0.00526588
GAMG:  Solving for p, Initial residual = 0.048975, Final residual = 0.00371683, No Iterations 3
time step continuity errors : sum local = 6.13963e-07, global = 4.44097e-18, cumulative = 4.56319e-17
Pressure gradient source: uncorrected Ubar = 1, pressure gradient = 0.00522126
smoothSolver:  Solving for omega, Initial residual = 9.24487e-06, Final residual = 9.24487e-06, No Iterations 0
smoothSolver:  Solving for k, Initial residual = 0.00352326, Final residual = 0.000300558, No Iterations 5
ExecutionTime = 0.185551 s  ClockTime = 0 s

Time = 85s

smoothSolver:  Solving for Ux, Initial residual = 0.000696904, Final residual = 4.73203e-05, No Iterations 6
smoothSolver:  Solving for Uy, Initial residual = 0.137857, Final residual = 0.00816148, No Iterations 3
Pressure gradient source: uncorrected Ubar = 0.999999, pressure gradient = 0.00523957
GAMG:  Solving for p, Initial residual = 0.033821, Final residual = 0.00279167, No Iterations 3
time step continuity errors : sum local = 4.67814e-07, global = 3.52024e-18, cumulative = 4.91521e-17
Pressure gradient source: uncorrected Ubar = 1, pressure gradient = 0.00521499
smoothSolver:  Solving for omega, Initial residual = 9.46658e-06, Final residual = 9.46658e-06, No Iterations 0
smoothSolver:  Solving for k, Initial residual = 0.00360209, Final residual = 0.000343744, No Iterations 5
ExecutionTime = 0.187529 s  ClockTime = 0 s

Time = 86s

smoothSolver:  Solving for Ux, Initial residual = 0.000647591, Final residual = 4.37873e-05, No Iterations 6
smoothSolver:  Solving for Uy, Initial residual = 0.165882, Final residual = 0.0105698, No Iterations 3
Pressure gradient source: uncorrected Ubar = 0.999998, pressure gradient = 0.0052547
GAMG:  Solving for p, Initial residual = 0.0431106, Final residual = 0.00215978, No Iterations 7
time step continuity errors : sum local = 3.90194e-07, global = 5.42032e-18, cumulative = 5.45724e-17
Pressure gradient source: uncorrected Ubar = 1, pressure gradient = 0.00521225
smoothSolver:  Solving for omega, Initial residual = 9.66619e-06, Final residual = 9.66619e-06, No Iterations 0
smoothSolver:  Solving for k, Initial residual = 0.00362916, Final residual = 0.00023153, No Iterations 6
ExecutionTime = 0.189835 s  ClockTime = 0 s

Time = 87s

smoothSolver:  Solving for Ux, Initial residual = 0.000586202, Final residual = 3.95099e-05, No Iterations 6
smoothSolver:  Solving for Uy, Initial residual = 0.203387, Final residual = 0.0191827, No Iterations 3
Pressure gradient source: uncorrected Ubar = 1, pressure gradient = 0.00521256
GAMG:  Solving for p, Initial residual = 0.0363362, Final residual = 0.0030173, No Iterations 7
time step continuity errors : sum local = 5.64311e-07, global = 5.07521e-18, cumulative = 5.96476e-17
Pressure gradient source: uncorrected Ubar = 1, pressure gradient = 0.00520489
smoothSolver:  Solving for omega, Initial residual = 9.85893e-06, Final residual = 9.85893e-06, No Iterations 0
smoothSolver:  Solving for k, Initial residual = 0.00362973, Final residual = 0.000296921, No Iterations 5
ExecutionTime = 0.191954 s  ClockTime = 0 s

Time = 88s

smoothSolver:  Solving for Ux, Initial residual = 0.000531106, Final residual = 3.56095e-05, No Iterations 6
smoothSolver:  Solving for Uy, Initial residual = 0.151454, Final residual = 0.00855372, No Iterations 3
Pressure gradient source: uncorrected Ubar = 0.999999, pressure gradient = 0.00522121
GAMG:  Solving for p, Initial residual = 0.054502, Final residual = 0.00487904, No Iterations 6
time step continuity errors : sum local = 8.3118e-07, global = 4.83719e-18, cumulative = 6.44848e-17
Pressure gradient source: uncorrected Ubar = 1, pressure gradient = 0.00520005
smoothSolver:  Solving for omega, Initial residual = 1.00184e-05, Final residual = 5.48557e-06, No Iterations 1
smoothSolver:  Solving for k, Initial residual = 0.00351211, Final residual = 0.00031226, No Iterations 5
ExecutionTime = 0.194035 s  ClockTime = 0 s

Time = 89s

smoothSolver:  Solving for Ux, Initial residual = 0.000536487, Final residual = 5.36026e-05, No Iterations 5
smoothSolver:  Solving for Uy, Initial residual = 0.216952, Final residual = 0.00992225, No Iterations 3
Pressure gradient source: uncorrected Ubar = 0.999989, pressure gradient = 0.0054016
GAMG:  Solving for p, Initial residual = 0.0768475, Final residual = 0.00497434, No Iterations 3
[...]
smoothSolver:  Solving for omega, Initial residual = 8.42614e-06, Final residual = 8.42614e-06, No Iterations 0
smoothSolver:  Solving for k, Initial residual = 8.36291e-05, Final residual = 9.00678e-06, No Iterations 4
ExecutionTime = 0.516239 s  ClockTime = 0 s

Time = 245s

smoothSolver:  Solving for Ux, Initial residual = 2.99643e-05, Final residual = 7.86054e-06, No Iterations 3
smoothSolver:  Solving for Uy, Initial residual = 0.0123869, Final residual = 0.00119306, No Iterations 2
Pressure gradient source: uncorrected Ubar = 1, pressure gradient = 0.00493869
GAMG:  Solving for p, Initial residual = 0.00405674, Final residual = 0.00035951, No Iterations 5
time step continuity errors : sum local = 3.93405e-08, global = -9.79362e-19, cumulative = 1.01938e-16
Pressure gradient source: uncorrected Ubar = 1, pressure gradient = 0.00493791
smoothSolver:  Solving for omega, Initial residual = 8.42043e-06, Final residual = 8.42043e-06, No Iterations 0
smoothSolver:  Solving for k, Initial residual = 8.85702e-05, Final residual = 6.31641e-06, No Iterations 5
ExecutionTime = 0.518223 s  ClockTime = 0 s

Time = 246s

smoothSolver:  Solving for Ux, Initial residual = 2.81775e-05, Final residual = 7.39213e-06, No Iterations 3
smoothSolver:  Solving for Uy, Initial residual = 0.0141192, Final residual = 0.000777726, No Iterations 3
Pressure gradient source: uncorrected Ubar = 1, pressure gradient = 0.00493795
GAMG:  Solving for p, Initial residual = 0.0042462, Final residual = 0.000325271, No Iterations 5
time step continuity errors : sum local = 3.69982e-08, global = -4.49071e-18, cumulative = 9.74475e-17
Pressure gradient source: uncorrected Ubar = 1, pressure gradient = 0.00493767
smoothSolver:  Solving for omega, Initial residual = 8.41519e-06, Final residual = 8.41519e-06, No Iterations 0
smoothSolver:  Solving for k, Initial residual = 8.87128e-05, Final residual = 9.53213e-06, No Iterations 4
ExecutionTime = 0.520173 s  ClockTime = 0 s

Time = 247s

smoothSolver:  Solving for Ux, Initial residual = 2.65588e-05, Final residual = 6.96338e-06, No Iterations 3
smoothSolver:  Solving for Uy, Initial residual = 0.014098, Final residual = 0.00138763, No Iterations 2
Pressure gradient source: uncorrected Ubar = 1, pressure gradient = 0.00493774
GAMG:  Solving for p, Initial residual = 0.00411229, Final residual = 0.000384137, No Iterations 6
time step continuity errors : sum local = 4.38233e-08, global = -2.83082e-18, cumulative = 9.46167e-17
Pressure gradient source: uncorrected Ubar = 1, pressure gradient = 0.00493745
smoothSolver:  Solving for omega, Initial residual = 8.41058e-06, Final residual = 8.41058e-06, No Iterations 0
smoothSolver:  Solving for k, Initial residual = 9.40081e-05, Final residual = 7.65578e-06, No Iterations 5
ExecutionTime = 0.522152 s  ClockTime = 0 s

Time = 248s

smoothSolver:  Solving for Ux, Initial residual = 2.46617e-05, Final residual = 9.78384e-06, No Iterations 2
smoothSolver:  Solving for Uy, Initial residual = 0.0136318, Final residual = 0.000992537, No Iterations 3
Pressure gradient source: uncorrected Ubar = 1, pressure gradient = 0.00493892
GAMG:  Solving for p, Initial residual = 0.00458329, Final residual = 0.00040328, No Iterations 3
time step continuity errors : sum local = 4.43944e-08, global = -6.52941e-18, cumulative = 8.80873e-17
Pressure gradient source: uncorrected Ubar = 1, pressure gradient = 0.00493763
smoothSolver:  Solving for omega, Initial residual = 8.40747e-06, Final residual = 8.40747e-06, No Iterations 0
smoothSolver:  Solving for k, Initial residual = 9.16996e-05, Final residual = 6.53777e-06, No Iterations 5
ExecutionTime = 0.524015 s  ClockTime = 0 s

Time = 249s

smoothSolver:  Solving for Ux, Initial residual = 2.30309e-05, Final residual = 9.14477e-06, No Iterations 2
smoothSolver:  Solving for Uy, Initial residual = 0.0127889, Final residual = 0.00106187, No Iterations 2
Pressure gradient source: uncorrected Ubar = 1, pressure gradient = 0.00493686
GAMG:  Solving for p, Initial residual = 0.00442701, Final residual = 0.000385177, No Iterations 3
time step continuity errors : sum local = 4.37399e-08, global = -8.86002e-18, cumulative = 7.92272e-17
Pressure gradient source: uncorrected Ubar = 1, pressure gradient = 0.00493734
smoothSolver:  Solving for omega, Initial residual = 8.40474e-06, Final residual = 8.40474e-06, No Iterations 0
smoothSolver:  Solving for k, Initial residual = 9.43637e-05, Final residual = 6.74699e-06, No Iterations 5
ExecutionTime = 0.526061 s  ClockTime = 0 s

Time = 250s

smoothSolver:  Solving for Ux, Initial residual = 2.13837e-05, Final residual = 8.49216e-06, No Iterations 2
smoothSolver:  Solving for Uy, Initial residual = 0.0143533, Final residual = 0.000624994, No Iterations 3
Pressure gradient source: uncorrected Ubar = 1, pressure gradient = 0.00493657
GAMG:  Solving for p, Initial residual = 0.00422634, Final residual = 0.000347879, No Iterations 4
time step continuity errors : sum local = 4.26854e-08, global = -1.13266e-18, cumulative = 7.80946e-17
Pressure gradient source: uncorrected Ubar = 1, pressure gradient = 0.00493704
smoothSolver:  Solving for omega, Initial residual = 8.40225e-06, Final residual = 8.40225e-06, No Iterations 0
smoothSolver:  Solving for k, Initial residual = 9.56986e-05, Final residual = 6.2883e-06, No Iterations 5
ExecutionTime = 0.528532 s  ClockTime = 0 s

Time = 251s

smoothSolver:  Solving for Ux, Initial residual = 1.98086e-05, Final residual = 7.86027e-06, No Iterations 2
smoothSolver:  Solving for Uy, Initial residual = 0.0123828, Final residual = 0.000504314, No Iterations 3
Pressure gradient source: uncorrected Ubar = 1, pressure gradient = 0.00493607
GAMG:  Solving for p, Initial residual = 0.00377989, Final residual = 0.000315012, No Iterations 5
time step continuity errors : sum local = 3.51629e-08, global = -5.79886e-18, cumulative = 7.22957e-17
Pressure gradient source: uncorrected Ubar = 1, pressure gradient = 0.0049367
smoothSolver:  Solving for omega, Initial residual = 8.4006e-06, Final residual = 8.4006e-06, No Iterations 0
smoothSolver:  Solving for k, Initial residual = 9.91608e-05, Final residual = 7.79475e-06, No Iterations 5
ExecutionTime = 0.53061 s  ClockTime = 0 s

Time = 252s

smoothSolver:  Solving for Ux, Initial residual = 1.81977e-05, Final residual = 7.23041e-06, No Iterations 2
smoothSolver:  Solving for Uy, Initial residual = 0.0138035, Final residual = 0.000810726, No Iterations 3
Pressure gradient source: uncorrected Ubar = 1, pressure gradient = 0.00493578
GAMG:  Solving for p, Initial residual = 0.00405573, Final residual = 0.000270303, No Iterations 5
time step continuity errors : sum local = 3.10583e-08, global = 6.20638e-18, cumulative = 7.85021e-17
Pressure gradient source: uncorrected Ubar = 1, pressure gradient = 0.00493639
smoothSolver:  Solving for omega, Initial residual = 8.39909e-06, Final residual = 8.39909e-06, No Iterations 0
smoothSolver:  Solving for k, Initial residual = 9.68217e-05, Final residual = 6.87645e-06, No Iterations 5
ExecutionTime = 0.532599 s  ClockTime = 0 s

Time = 253s

smoothSolver:  Solving for Ux, Initial residual = 1.66554e-05, Final residual = 6.6058e-06, No Iterations 2
smoothSolver:  Solving for Uy, Initial residual = 0.0135263, Final residual = 0.000493131, No Iterations 3
Pressure gradient source: uncorrected Ubar = 1, pressure gradient = 0.00493485
GAMG:  Solving for p, Initial residual = 0.00381041, Final residual = 0.000380601, No Iterations 5
time step continuity errors : sum local = 4.65403e-08, global = 1.08696e-17, cumulative = 8.93717e-17
Pressure gradient source: uncorrected Ubar = 1, pressure gradient = 0.00493594
smoothSolver:  Solving for omega, Initial residual = 8.39788e-06, Final residual = 8.39788e-06, No Iterations 0
smoothSolver:  Solving for k, Initial residual = 9.91751e-05, Final residual = 6.99573e-06, No Iterations 5
ExecutionTime = 0.534549 s  ClockTime = 0 s

Time = 254s

smoothSolver:  Solving for Ux, Initial residual = 1.50805e-05, Final residual = 9.21004e-06, No Iterations 1
smoothSolver:  Solving for Uy, Initial residual = 0.0151517, Final residual = 0.000852369, No Iterations 3
Pressure gradient source: uncorrected Ubar = 1, pressure gradient = 0.00493642
GAMG:  Solving for p, Initial residual = 0.00466853, Final residual = 0.000466693, No Iterations 4
time step continuity errors : sum local = 5.34903e-08, global = 7.23275e-18, cumulative = 9.66044e-17
Pressure gradient source: uncorrected Ubar = 1, pressure gradient = 0.00493629
smoothSolver:  Solving for omega, Initial residual = 8.39793e-06, Final residual = 8.39793e-06, No Iterations 0
smoothSolver:  Solving for k, Initial residual = 9.96559e-05, Final residual = 7.00425e-06, No Iterations 5
ExecutionTime = 0.536439 s  ClockTime = 0 s

Time = 255s

smoothSolver:  Solving for Ux, Initial residual = 1.37319e-05, Final residual = 8.41683e-06, No Iterations 1
smoothSolver:  Solving for Uy, Initial residual = 0.0143776, Final residual = 0.000765572, No Iterations 3
Pressure gradient source: uncorrected Ubar = 1, pressure gradient = 0.00493466
GAMG:  Solving for p, Initial residual = 0.00429376, Final residual = 0.000396474, No Iterations 6
time step continuity errors : sum local = 4.81273e-08, global = 1.53083e-17, cumulative = 1.11913e-16
Pressure gradient source: uncorrected Ubar = 1, pressure gradient = 0.00493589
smoothSolver:  Solving for omega, Initial residual = 8.39784e-06, Final residual = 8.39784e-06, No Iterations 0
smoothSolver:  Solving for k, Initial residual = 0.000101506, Final residual = 7.76258e-06, No Iterations 5
ExecutionTime = 0.538405 s  ClockTime = 0 s

Time = 256s

smoothSolver:  Solving for Ux, Initial residual = 1.23682e-05, Final residual = 7.59158e-06, No Iterations 1
smoothSolver:  Solving for Uy, Initial residual = 0.016972, Final residual = 0.000734963, No Iterations 3
Pressure gradient source: uncorrected Ubar = 1, pressure gradient = 0.00493449
GAMG:  Solving for p, Initial residual = 0.00439344, Final residual = 0.000412535, No Iterations 5
time step continuity errors : sum local = 4.65938e-08, global = -1.95134e-18, cumulative = 1.09961e-16
Pressure gradient source: uncorrected Ubar = 1, pressure gradient = 0.00493554
smoothSolver:  Solving for omega, Initial residual = 8.39836e-06, Final residual = 8.39836e-06, No Iterations 0
smoothSolver:  Solving for k, Initial residual = 9.79613e-05, Final residual = 6.47064e-06, No Iterations 5
ExecutionTime = 0.54034 s  ClockTime = 0 s

Time = 257s

smoothSolver:  Solving for Ux, Initial residual = 1.09676e-05, Final residual = 6.7323e-06, No Iterations 1
smoothSolver:  Solving for Uy, Initial residual = 0.0121155, Final residual = 0.000519982, No Iterations 3
Pressure gradient source: uncorrected Ubar = 1, pressure gradient = 0.00493378
GAMG:  Solving for p, Initial residual = 0.00358819, Final residual = 0.000284627, No Iterations 6
time step continuity errors : sum local = 3.22807e-08, global = -5.42694e-18, cumulative = 1.04534e-16
Pressure gradient source: uncorrected Ubar = 1, pressure gradient = 0.00493506
smoothSolver:  Solving for omega, Initial residual = 8.39911e-06, Final residual = 8.39911e-06, No Iterations 0
smoothSolver:  Solving for k, Initial residual = 0.000100244, Final residual = 7.07447e-06, No Iterations 5
ExecutionTime = 0.542429 s  ClockTime = 0 s

Time = 258s

smoothSolver:  Solving for Ux, Initial residual = 9.62909e-06, Final residual = 9.62909e-06, No Iterations 0
smoothSolver:  Solving for Uy, Initial residual = 0.0137696, Final residual = 0.000787283, No Iterations 3
Pressure gradient source: uncorrected Ubar = 1, pressure gradient = 0.00493506
GAMG:  Solving for p, Initial residual = 0.00377337, Final residual = 0.000292046, No Iterations 4
time step continuity errors : sum local = 3.3922e-08, global = -1.29874e-18, cumulative = 1.03236e-16
Pressure gradient source: uncorrected Ubar = 1, pressure gradient = 0.00493599
smoothSolver:  Solving for omega, Initial residual = 8.39959e-06, Final residual = 8.39959e-06, No Iterations 0
smoothSolver:  Solving for k, Initial residual = 9.89214e-05, Final residual = 6.31453e-06, No Iterations 5
ExecutionTime = 0.544626 s  ClockTime = 0 s

Time = 259s

smoothSolver:  Solving for Ux, Initial residual = 8.77309e-06, Final residual = 8.77309e-06, No Iterations 0
smoothSolver:  Solving for Uy, Initial residual = 0.0154303, Final residual = 0.00061066, No Iterations 3
Pressure gradient source: uncorrected Ubar = 1, pressure gradient = 0.00493599
GAMG:  Solving for p, Initial residual = 0.00375094, Final residual = 0.000273385, No Iterations 4
time step continuity errors : sum local = 3.17509e-08, global = -2.50974e-18, cumulative = 1.00726e-16
Pressure gradient source: uncorrected Ubar = 1, pressure gradient = 0.00493546
smoothSolver:  Solving for omega, Initial residual = 8.40011e-06, Final residual = 8.40011e-06, No Iterations 0
smoothSolver:  Solving for k, Initial residual = 0.000101129, Final residual = 7.74463e-06, No Iterations 5
ExecutionTime = 0.54697 s  ClockTime = 0 s

Time = 260s

smoothSolver:  Solving for Ux, Initial residual = 7.90011e-06, Final residual = 7.90011e-06, No Iterations 0
smoothSolver:  Solving for Uy, Initial residual = 0.0229435, Final residual = 0.00135369, No Iterations 3
Pressure gradient source: uncorrected Ubar = 1, pressure gradient = 0.00493546
GAMG:  Solving for p, Initial residual = 0.00406157, Final residual = 0.000192629, No Iterations 4
time step continuity errors : sum local = 2.13877e-08, global = 2.25817e-18, cumulative = 1.02984e-16
Pressure gradient source: uncorrected Ubar = 1, pressure gradient = 0.00493488
smoothSolver:  Solving for omega, Initial residual = 8.40095e-06, Final residual = 8.40095e-06, No Iterations 0
smoothSolver:  Solving for k, Initial residual = 9.67299e-05, Final residual = 6.23291e-06, No Iterations 5
ExecutionTime = 0.548989 s  ClockTime = 0 s

Time = 261s

smoothSolver:  Solving for Ux, Initial residual = 7.20057e-06, Final residual = 7.20057e-06, No Iterations 0
smoothSolver:  Solving for Uy, Initial residual = 0.0236103, Final residual = 0.00108789, No Iterations 3
Pressure gradient source: uncorrected Ubar = 1, pressure gradient = 0.00493488
GAMG:  Solving for p, Initial residual = 0.00328028, Final residual = 0.000227068, No Iterations 4
time step continuity errors : sum local = 2.61034e-08, global = -4.63072e-18, cumulative = 9.83535e-17
Pressure gradient source: uncorrected Ubar = 1, pressure gradient = 0.00493427
smoothSolver:  Solving for omega, Initial residual = 8.40164e-06, Final residual = 8.40164e-06, No Iterations 0
smoothSolver:  Solving for k, Initial residual = 9.97465e-05, Final residual = 7.31894e-06, No Iterations 5
ExecutionTime = 0.550902 s  ClockTime = 0 s

Time = 262s

smoothSolver:  Solving for Ux, Initial residual = 6.60819e-06, Final residual = 6.60819e-06, No Iterations 0
smoothSolver:  Solving for Uy, Initial residual = 0.0257467, Final residual = 0.00140669, No Iterations 3
Pressure gradient source: uncorrected Ubar = 1, pressure gradient = 0.00493427
GAMG:  Solving for p, Initial residual = 0.00306055, Final residual = 0.000306039, No Iterations 4
time step continuity errors : sum local = 3.56835e-08, global = -8.37888e-19, cumulative = 9.75156e-17
Pressure gradient source: uncorrected Ubar = 1, pressure gradient = 0.00493362
smoothSolver:  Solving for omega, Initial residual = 8.40256e-06, Final residual = 8.40256e-06, No Iterations 0
smoothSolver:  Solving for k, Initial residual = 9.81871e-05, Final residual = 6.39759e-06, No Iterations 5
ExecutionTime = 0.552796 s  ClockTime = 0 s

Time = 263s

smoothSolver:  Solving for Ux, Initial residual = 6.17587e-06, Final residual = 6.17587e-06, No Iterations 0
smoothSolver:  Solving for Uy, Initial residual = 0.0208526, Final residual = 0.000930781, No Iterations 3
Pressure gradient source: uncorrected Ubar = 1, pressure gradient = 0.00493362
GAMG:  Solving for p, Initial residual = 0.00350713, Final residual = 0.000243538, No Iterations 6
time step continuity errors : sum local = 3.12802e-08, global = -7.69286e-18, cumulative = 8.98227e-17
Pressure gradient source: uncorrected Ubar = 1, pressure gradient = 0.00493302
smoothSolver:  Solving for omega, Initial residual = 8.40328e-06, Final residual = 8.40328e-06, No Iterations 0
smoothSolver:  Solving for k, Initial residual = 9.91465e-05, Final residual = 7.45072e-06, No Iterations 5
ExecutionTime = 0.55474 s  ClockTime = 0 s

Time = 264s

smoothSolver:  Solving for Ux, Initial residual = 5.95148e-06, Final residual = 5.95148e-06, No Iterations 0
smoothSolver:  Solving for Uy, Initial residual = 0.0204346, Final residual = 0.00101547, No Iterations 3
Pressure gradient source: uncorrected Ubar = 1, pressure gradient = 0.00493302
GAMG:  Solving for p, Initial residual = 0.00319006, Final residual = 0.000304662, No Iterations 6
time step continuity errors : sum local = 3.50446e-08, global = -6.50991e-18, cumulative = 8.33128e-17
Pressure gradient source: uncorrected Ubar = 1, pressure gradient = 0.00493242
smoothSolver:  Solving for omega, Initial residual = 8.40455e-06, Final residual = 8.40455e-06, No Iterations 0
smoothSolver:  Solving for k, Initial residual = 9.60051e-05, Final residual = 6.2438e-06, No Iterations 5
ExecutionTime = 0.556697 s  ClockTime = 0 s

Time = 265s

smoothSolver:  Solving for Ux, Initial residual = 5.81722e-06, Final residual = 5.81722e-06, No Iterations 0
smoothSolver:  Solving for Uy, Initial residual = 0.0165265, Final residual = 0.000683097, No Iterations 3
Pressure gradient source: uncorrected Ubar = 1, pressure gradient = 0.00493242
GAMG:  Solving for p, Initial residual = 0.00267113, Final residual = 0.000206741, No Iterations 8
time step continuity errors : sum local = 2.27778e-08, global = -1.19331e-18, cumulative = 8.21195e-17
Pressure gradient source: uncorrected Ubar = 1, pressure gradient = 0.00493182
smoothSolver:  Solving for omega, Initial residual = 8.40581e-06, Final residual = 8.40581e-06, No Iterations 0
smoothSolver:  Solving for k, Initial residual = 9.59215e-05, Final residual = 6.65949e-06, No Iterations 5
ExecutionTime = 0.558865 s  ClockTime = 0 s

Time = 266s

smoothSolver:  Solving for Ux, Initial residual = 5.83769e-06, Final residual = 5.83769e-06, No Iterations 0
smoothSolver:  Solving for Uy, Initial residual = 0.0153545, Final residual = 0.000742881, No Iterations 3
Pressure gradient source: uncorrected Ubar = 1, pressure gradient = 0.00493182
GAMG:  Solving for p, Initial residual = 0.00235536, Final residual = 0.000199771, No Iterations 7
time step continuity errors : sum local = 2.28472e-08, global = -2.59426e-18, cumulative = 7.95252e-17
Pressure gradient source: uncorrected Ubar = 1, pressure gradient = 0.00493123
smoothSolver:  Solving for omega, Initial residual = 8.40714e-06, Final residual = 8.40714e-06, No Iterations 0
smoothSolver:  Solving for k, Initial residual = 9.64479e-05, Final residual = 6.34099e-06, No Iterations 5
ExecutionTime = 0.561071 s  ClockTime = 0 s

Time = 267s

smoothSolver:  Solving for Ux, Initial residual = 5.98421e-06, Final residual = 5.98421e-06, No Iterations 0
smoothSolver:  Solving for Uy, Initial residual = 0.00995673, Final residual = 0.000602673, No Iterations 3
Pressure gradient source: uncorrected Ubar = 1, pressure gradient = 0.00493123
GAMG:  Solving for p, Initial residual = 0.00214898, Final residual = 0.000170296, No Iterations 6
time step continuity errors : sum local = 2.17564e-08, global = 6.94765e-18, cumulative = 8.64729e-17
Pressure gradient source: uncorrected Ubar = 1, pressure gradient = 0.00493061
smoothSolver:  Solving for omega, Initial residual = 8.40848e-06, Final residual = 8.40848e-06, No Iterations 0
smoothSolver:  Solving for k, Initial residual = 9.63236e-05, Final residual = 7.06191e-06, No Iterations 5
ExecutionTime = 0.563451 s  ClockTime = 0 s


SIMPLE solution converged in 267 iterations

End

