/*---------------------------------------------------------------------------*\
  =========                 |
  \\      /  F ield         | OpenFOAM: The Open Source CFD Toolbox
   \\    /   O peration     | Website:  https://openfoam.org
    \\  /    A nd           | Version:  10
     \\/     M anipulation  |
\*---------------------------------------------------------------------------*/
Build  : 10-e450dce21ea5
Exec   : blockMesh
Date   : Jan 16 2023
Time   : 11:43:38
Host   : "w530-R9YK46P"
PID    : 14379
I/O    : uncollated
Case   : /home/jdmezazeron/gitDanielMezaZ/turbulenceVisualized/Data/SimulationFiles/E20_Re5816
nProcs : 1
sigFpe : Enabling floating point exception trapping (FOAM_SIGFPE).
fileModificationChecking : Monitoring run-time modified files using timeStampMaster (fileModificationSkew 10)
allowSystemOperations : Allowing user-supplied system call operations

// * * * * * * * * * * * * * * * * * * * * * * * * * * * * * * * * * * * * * //
Create time

Reading "blockMeshDict"

Creating block mesh from
    "system/blockMeshDict"
Creating block edges
No non-planar block faces defined
Creating topology blocks
Creating topology patches

Creating block mesh topology

Check topology

	Basic statistics
		Number of internal faces : 0
		Number of boundary faces : 6
		Number of defined boundary faces : 6
		Number of undefined boundary faces : 0
	Checking patch -> block consistency

Creating block offsets
Creating merge list .

Creating polyMesh from blockMesh
Creating patches
Creating cells
Creating points with scale 1
    Block 0 cell size :
        i : 0.5
        j : 0.00921276 .. 0.036851
        k : 2

Detected cyclic patches; ordering boundary faces

Writing polyMesh
----------------
Mesh Information
----------------
  boundingBox: (-1 0 -1) (1 1 1)
  nPoints: 510
  nCells: 200
  nFaces: 854
  nInternalFaces: 346
----------------
Patches
----------------
  patch 0 (start: 346 size: 50) name: inlet
  patch 1 (start: 396 size: 50) name: outlet
  patch 2 (start: 446 size: 4) name: fixedWalls-bottom
  patch 3 (start: 450 size: 4) name: fixedWalls-top
  patch 4 (start: 454 size: 400) name: frontAndBack

End

/*---------------------------------------------------------------------------*\
  =========                 |
  \\      /  F ield         | OpenFOAM: The Open Source CFD Toolbox
   \\    /   O peration     | Website:  https://openfoam.org
    \\  /    A nd           | Version:  10
     \\/     M anipulation  |
\*---------------------------------------------------------------------------*/
Build  : 10-e450dce21ea5
Exec   : simpleFoam
Date   : Jan 16 2023
Time   : 11:43:38
Host   : "w530-R9YK46P"
PID    : 14380
I/O    : uncollated
Case   : /home/jdmezazeron/gitDanielMezaZ/turbulenceVisualized/Data/SimulationFiles/E20_Re5816
nProcs : 1
sigFpe : Enabling floating point exception trapping (FOAM_SIGFPE).
fileModificationChecking : Monitoring run-time modified files using timeStampMaster (fileModificationSkew 10)
allowSystemOperations : Allowing user-supplied system call operations

// * * * * * * * * * * * * * * * * * * * * * * * * * * * * * * * * * * * * * //
Create time

Create mesh for time = 0


SIMPLE: Convergence criteria found
        U: tolerance 0.01
        p: tolerance 0.01
        omega: tolerance 0.0001

Reading field p

Reading field U

Reading/calculating face flux field phi

Selecting viscosity model Newtonian
Selecting turbulence model type RAS
Selecting RAS turbulence model kOmegaSST
Selecting patchDistMethod meshWave
RAS
{
    RASModel        kOmegaSST;
    turbulence      on;
    printCoeffs     on;
    alphaK1         0.85;
    alphaK2         1;
    alphaOmega1     0.5;
    alphaOmega2     0.856;
    gamma1          0.555556;
    gamma2          0.44;
    beta1           0.075;
    beta2           0.0828;
    betaStar        0.09;
    a1              0.31;
    b1              1;
    c1              10;
    F3              false;
}

No MRF models present

--> FOAM Warning : Creating fvModels from "system/fvOptions" rather than constant/fvModels
No fvModels present
--> FOAM Warning : Creating fvConstraints from "system/fvOptions"

Selecting finite volume constraint type meanVelocityForce
    Name: momentumSource
    - selecting all cells
    - selected 200 cell(s) with volume 4
    Initial pressure gradient = 0


Starting time loop

turbulenceFields stressComponents: storing fields:
    R

Time = 1s

smoothSolver:  Solving for Ux, Initial residual = 0, Final residual = 0, No Iterations 0
smoothSolver:  Solving for Uy, Initial residual = 0, Final residual = 0, No Iterations 0
Pressure gradient source: uncorrected Ubar = 0, pressure gradient = 2.03079
GAMG:  Solving for p, Initial residual = 0.999988, Final residual = 0.0731983, No Iterations 3
time step continuity errors : sum local = 4.38794e-17, global = -9.66419e-18, cumulative = -9.66419e-18
Pressure gradient source: uncorrected Ubar = 0.86938, pressure gradient = 0.265263
smoothSolver:  Solving for omega, Initial residual = 0.16219, Final residual = 0.0122091, No Iterations 1
bounding omega, min: -10.7054 max: 1296.59 average: 51.6767
smoothSolver:  Solving for k, Initial residual = 1, Final residual = 0.0322663, No Iterations 2
ExecutionTime = 0.013063 s  ClockTime = 0 s

Time = 2s

smoothSolver:  Solving for Ux, Initial residual = 0.169434, Final residual = 0.0158412, No Iterations 5
smoothSolver:  Solving for Uy, Initial residual = 1, Final residual = 0.0861223, No Iterations 2
Pressure gradient source: uncorrected Ubar = 1.2169, pressure gradient = -1.30993
GAMG:  Solving for p, Initial residual = 1, Final residual = 0.0973486, No Iterations 8
time step continuity errors : sum local = 0.00587697, global = 1.13839e-18, cumulative = -8.5258e-18
Pressure gradient source: uncorrected Ubar = 1.04749, pressure gradient = -0.0795839
smoothSolver:  Solving for omega, Initial residual = 0.0452711, Final residual = 0.00242332, No Iterations 1
smoothSolver:  Solving for k, Initial residual = 0.261185, Final residual = 0.0188939, No Iterations 3
ExecutionTime = 0.015373 s  ClockTime = 0 s

Time = 3s

smoothSolver:  Solving for Ux, Initial residual = 0.184639, Final residual = 0.0129181, No Iterations 5
smoothSolver:  Solving for Uy, Initial residual = 0.571631, Final residual = 0.0299424, No Iterations 3
Pressure gradient source: uncorrected Ubar = 0.921527, pressure gradient = 0.671961
GAMG:  Solving for p, Initial residual = 0.146867, Final residual = 0.0141817, No Iterations 6
time step continuity errors : sum local = 0.00286218, global = 9.64262e-18, cumulative = 1.11682e-18
Pressure gradient source: uncorrected Ubar = 0.989345, pressure gradient = 0.0224562
smoothSolver:  Solving for omega, Initial residual = 0.0100393, Final residual = 0.000322779, No Iterations 2
smoothSolver:  Solving for k, Initial residual = 0.145455, Final residual = 0.00718439, No Iterations 2
ExecutionTime = 0.017567 s  ClockTime = 0 s

Time = 4s

smoothSolver:  Solving for Ux, Initial residual = 0.079422, Final residual = 0.00591152, No Iterations 4
smoothSolver:  Solving for Uy, Initial residual = 0.431381, Final residual = 0.0220148, No Iterations 3
Pressure gradient source: uncorrected Ubar = 1.00567, pressure gradient = -0.0356695
GAMG:  Solving for p, Initial residual = 0.0679386, Final residual = 0.00663777, No Iterations 10
time step continuity errors : sum local = 0.00178981, global = 1.89725e-18, cumulative = 3.01407e-18
Pressure gradient source: uncorrected Ubar = 1.00072, pressure gradient = 0.0150583
smoothSolver:  Solving for omega, Initial residual = 0.00723707, Final residual = 0.000491668, No Iterations 1
smoothSolver:  Solving for k, Initial residual = 0.0790343, Final residual = 0.00727435, No Iterations 2
ExecutionTime = 0.019799 s  ClockTime = 0 s

Time = 5s

smoothSolver:  Solving for Ux, Initial residual = 0.0439772, Final residual = 0.00293698, No Iterations 5
smoothSolver:  Solving for Uy, Initial residual = 0.483236, Final residual = 0.022056, No Iterations 3
Pressure gradient source: uncorrected Ubar = 1.00278, pressure gradient = -0.014998
GAMG:  Solving for p, Initial residual = 0.110029, Final residual = 0.00709773, No Iterations 7
time step continuity errors : sum local = 0.00092011, global = -3.45589e-18, cumulative = -4.41825e-19
Pressure gradient source: uncorrected Ubar = 1.00036, pressure gradient = 0.0111682
smoothSolver:  Solving for omega, Initial residual = 0.00319621, Final residual = 0.000307018, No Iterations 1
smoothSolver:  Solving for k, Initial residual = 0.0626027, Final residual = 0.0052813, No Iterations 3
ExecutionTime = 0.021928 s  ClockTime = 0 s

Time = 6s

smoothSolver:  Solving for Ux, Initial residual = 0.0292982, Final residual = 0.0023314, No Iterations 5
smoothSolver:  Solving for Uy, Initial residual = 0.48077, Final residual = 0.0281459, No Iterations 3
Pressure gradient source: uncorrected Ubar = 1.00193, pressure gradient = -0.0104701
GAMG:  Solving for p, Initial residual = 0.140428, Final residual = 0.0132868, No Iterations 12
time step continuity errors : sum local = 0.000799954, global = 6.98972e-18, cumulative = 6.54789e-18
Pressure gradient source: uncorrected Ubar = 1.00026, pressure gradient = 0.00822647
smoothSolver:  Solving for omega, Initial residual = 0.00209204, Final residual = 0.000120261, No Iterations 2
smoothSolver:  Solving for k, Initial residual = 0.0507188, Final residual = 0.00281936, No Iterations 4
ExecutionTime = 0.024352 s  ClockTime = 0 s

Time = 7s

smoothSolver:  Solving for Ux, Initial residual = 0.0225662, Final residual = 0.00192275, No Iterations 5
smoothSolver:  Solving for Uy, Initial residual = 0.592375, Final residual = 0.0298383, No Iterations 3
Pressure gradient source: uncorrected Ubar = 1.00061, pressure gradient = 0.000964308
GAMG:  Solving for p, Initial residual = 0.0998548, Final residual = 0.0082266, No Iterations 12
time step continuity errors : sum local = 0.000461978, global = -4.77727e-18, cumulative = 1.77062e-18
Pressure gradient source: uncorrected Ubar = 1.00008, pressure gradient = 0.00730164
smoothSolver:  Solving for omega, Initial residual = 0.0011742, Final residual = 8.24311e-05, No Iterations 2
smoothSolver:  Solving for k, Initial residual = 0.0500644, Final residual = 0.00404412, No Iterations 4
ExecutionTime = 0.026619 s  ClockTime = 0 s

Time = 8s

smoothSolver:  Solving for Ux, Initial residual = 0.0182553, Final residual = 0.00169683, No Iterations 5
smoothSolver:  Solving for Uy, Initial residual = 0.612213, Final residual = 0.0334671, No Iterations 3
Pressure gradient source: uncorrected Ubar = 1.00079, pressure gradient = -0.00247898
GAMG:  Solving for p, Initial residual = 0.0675165, Final residual = 0.0036665, No Iterations 4
time step continuity errors : sum local = 0.000265533, global = 6.01396e-18, cumulative = 7.78459e-18
Pressure gradient source: uncorrected Ubar = 1.0001, pressure gradient = 0.00611204
smoothSolver:  Solving for omega, Initial residual = 0.000765972, Final residual = 6.17671e-05, No Iterations 2
smoothSolver:  Solving for k, Initial residual = 0.047075, Final residual = 0.0041937, No Iterations 4
ExecutionTime = 0.028649 s  ClockTime = 0 s

Time = 9s

smoothSolver:  Solving for Ux, Initial residual = 0.0154566, Final residual = 0.0015149, No Iterations 5
smoothSolver:  Solving for Uy, Initial residual = 0.588374, Final residual = 0.034706, No Iterations 3
Pressure gradient source: uncorrected Ubar = 1.00075, pressure gradient = -0.00349321
GAMG:  Solving for p, Initial residual = 0.0506337, Final residual = 0.00452953, No Iterations 7
time step continuity errors : sum local = 0.000355018, global = -7.79085e-18, cumulative = -6.26487e-21
Pressure gradient source: uncorrected Ubar = 1.00009, pressure gradient = 0.00492738
smoothSolver:  Solving for omega, Initial residual = 0.000512896, Final residual = 3.30093e-05, No Iterations 3
smoothSolver:  Solving for k, Initial residual = 0.0423145, Final residual = 0.00282994, No Iterations 5
ExecutionTime = 0.030785 s  ClockTime = 0 s

Time = 10s

smoothSolver:  Solving for Ux, Initial residual = 0.0134048, Final residual = 0.000922211, No Iterations 6
smoothSolver:  Solving for Uy, Initial residual = 0.547381, Final residual = 0.0299675, No Iterations 3
Pressure gradient source: uncorrected Ubar = 1.00053, pressure gradient = -0.00197513
GAMG:  Solving for p, Initial residual = 0.0493879, Final residual = 0.00430655, No Iterations 10
time step continuity errors : sum local = 0.000295134, global = -1.8262e-18, cumulative = -1.83247e-18
Pressure gradient source: uncorrected Ubar = 1.00006, pressure gradient = 0.00410034
smoothSolver:  Solving for omega, Initial residual = 0.000352926, Final residual = 3.00507e-05, No Iterations 3
smoothSolver:  Solving for k, Initial residual = 0.0336371, Final residual = 0.00318823, No Iterations 4
ExecutionTime = 0.033131 s  ClockTime = 0 s

Time = 11s

smoothSolver:  Solving for Ux, Initial residual = 0.01159, Final residual = 0.000835364, No Iterations 6
smoothSolver:  Solving for Uy, Initial residual = 0.44243, Final residual = 0.0235974, No Iterations 3
Pressure gradient source: uncorrected Ubar = 1.00032, pressure gradient = -0.000271544
GAMG:  Solving for p, Initial residual = 0.0554571, Final residual = 0.00495353, No Iterations 11
time step continuity errors : sum local = 0.000254764, global = -3.55036e-18, cumulative = -5.38283e-18
Pressure gradient source: uncorrected Ubar = 1.00004, pressure gradient = 0.00358574
smoothSolver:  Solving for omega, Initial residual = 0.000239435, Final residual = 2.19061e-05, No Iterations 3
smoothSolver:  Solving for k, Initial residual = 0.0303153, Final residual = 0.00295644, No Iterations 4
ExecutionTime = 0.035422 s  ClockTime = 0 s

Time = 12s

smoothSolver:  Solving for Ux, Initial residual = 0.0102589, Final residual = 0.000782593, No Iterations 6
smoothSolver:  Solving for Uy, Initial residual = 0.345134, Final residual = 0.0207257, No Iterations 3
Pressure gradient source: uncorrected Ubar = 1.00028, pressure gradient = -0.000374067
GAMG:  Solving for p, Initial residual = 0.0679454, Final residual = 0.00584583, No Iterations 11
time step continuity errors : sum local = 0.000190483, global = 4.94223e-18, cumulative = -4.40601e-19
Pressure gradient source: uncorrected Ubar = 1.00003, pressure gradient = 0.00312617
smoothSolver:  Solving for omega, Initial residual = 0.000185381, Final residual = 1.13828e-05, No Iterations 4
smoothSolver:  Solving for k, Initial residual = 0.0269371, Final residual = 0.00262789, No Iterations 4
ExecutionTime = 0.037639 s  ClockTime = 0 s

Time = 13s

smoothSolver:  Solving for Ux, Initial residual = 0.00922538, Final residual = 0.000737736, No Iterations 6
smoothSolver:  Solving for Uy, Initial residual = 0.344925, Final residual = 0.0212112, No Iterations 3
Pressure gradient source: uncorrected Ubar = 1.00023, pressure gradient = -0.000130479
GAMG:  Solving for p, Initial residual = 0.0861479, Final residual = 0.00750204, No Iterations 9
time step continuity errors : sum local = 0.000143248, global = -4.57906e-18, cumulative = -5.01966e-18
Pressure gradient source: uncorrected Ubar = 1.00003, pressure gradient = 0.00273178
smoothSolver:  Solving for omega, Initial residual = 0.000137475, Final residual = 1.0319e-05, No Iterations 4
smoothSolver:  Solving for k, Initial residual = 0.0227969, Final residual = 0.00142518, No Iterations 5
ExecutionTime = 0.039889 s  ClockTime = 0 s

Time = 14s

smoothSolver:  Solving for Ux, Initial residual = 0.00843696, Final residual = 0.000699865, No Iterations 6
smoothSolver:  Solving for Uy, Initial residual = 0.40848, Final residual = 0.0280482, No Iterations 3
Pressure gradient source: uncorrected Ubar = 1.00014, pressure gradient = 0.000686932
GAMG:  Solving for p, Initial residual = 0.0732953, Final residual = 0.00682078, No Iterations 8
time step continuity errors : sum local = 0.000104935, global = 2.48308e-18, cumulative = -2.53658e-18
Pressure gradient source: uncorrected Ubar = 1.00002, pressure gradient = 0.00249117
smoothSolver:  Solving for omega, Initial residual = 0.000104475, Final residual = 8.27452e-06, No Iterations 4
smoothSolver:  Solving for k, Initial residual = 0.0202128, Final residual = 0.00133538, No Iterations 5
ExecutionTime = 0.042039 s  ClockTime = 0 s

Time = 15s

smoothSolver:  Solving for Ux, Initial residual = 0.00783919, Final residual = 0.00067049, No Iterations 6
smoothSolver:  Solving for Uy, Initial residual = 0.55559, Final residual = 0.0441496, No Iterations 3
Pressure gradient source: uncorrected Ubar = 1.00011, pressure gradient = 0.00087141
GAMG:  Solving for p, Initial residual = 0.0513027, Final residual = 0.00430693, No Iterations 7
time step continuity errors : sum local = 7.41929e-05, global = -5.79095e-18, cumulative = -8.32754e-18
Pressure gradient source: uncorrected Ubar = 1.00001, pressure gradient = 0.00229922
smoothSolver:  Solving for omega, Initial residual = 8.77386e-05, Final residual = 8.09566e-06, No Iterations 4
smoothSolver:  Solving for k, Initial residual = 0.0174979, Final residual = 0.00171434, No Iterations 4
ExecutionTime = 0.044206 s  ClockTime = 0 s

Time = 16s

smoothSolver:  Solving for Ux, Initial residual = 0.00736779, Final residual = 0.000647121, No Iterations 6
smoothSolver:  Solving for Uy, Initial residual = 0.660535, Final residual = 0.0475557, No Iterations 3
Pressure gradient source: uncorrected Ubar = 1.00008, pressure gradient = 0.00103211
GAMG:  Solving for p, Initial residual = 0.0515734, Final residual = 0.00501706, No Iterations 7
time step continuity errors : sum local = 7.949e-05, global = 2.59954e-18, cumulative = -5.72799e-18
Pressure gradient source: uncorrected Ubar = 1.00001, pressure gradient = 0.00214926
smoothSolver:  Solving for omega, Initial residual = 6.8119e-05, Final residual = 8.19611e-06, No Iterations 4
smoothSolver:  Solving for k, Initial residual = 0.0161121, Final residual = 0.00121639, No Iterations 5
ExecutionTime = 0.046389 s  ClockTime = 0 s

Time = 17s

smoothSolver:  Solving for Ux, Initial residual = 0.00700972, Final residual = 0.000626867, No Iterations 6
smoothSolver:  Solving for Uy, Initial residual = 0.668607, Final residual = 0.0417483, No Iterations 3
Pressure gradient source: uncorrected Ubar = 1.00005, pressure gradient = 0.00132611
GAMG:  Solving for p, Initial residual = 0.05747, Final residual = 0.00454793, No Iterations 9
time step continuity errors : sum local = 6.21993e-05, global = 8.45434e-18, cumulative = 2.72635e-18
Pressure gradient source: uncorrected Ubar = 1.00001, pressure gradient = 0.00205798
smoothSolver:  Solving for omega, Initial residual = 6.09328e-05, Final residual = 9.33826e-06, No Iterations 3
smoothSolver:  Solving for k, Initial residual = 0.0138693, Final residual = 0.000963234, No Iterations 5
ExecutionTime = 0.048775 s  ClockTime = 0 s

Time = 18s

smoothSolver:  Solving for Ux, Initial residual = 0.00694935, Final residual = 0.00061099, No Iterations 6
smoothSolver:  Solving for Uy, Initial residual = 0.518657, Final residual = 0.0312842, No Iterations 3
Pressure gradient source: uncorrected Ubar = 1.00003, pressure gradient = 0.00160104
GAMG:  Solving for p, Initial residual = 0.0594582, Final residual = 0.00531304, No Iterations 9
time step continuity errors : sum local = 6.0874e-05, global = 1.54584e-18, cumulative = 4.27219e-18
Pressure gradient source: uncorrected Ubar = 1, pressure gradient = 0.00201302
smoothSolver:  Solving for omega, Initial residual = 5.12741e-05, Final residual = 8.05581e-06, No Iterations 3
smoothSolver:  Solving for k, Initial residual = 0.0122006, Final residual = 0.000871535, No Iterations 5
ExecutionTime = 0.051028 s  ClockTime = 0 s

Time = 19s

smoothSolver:  Solving for Ux, Initial residual = 0.00688584, Final residual = 0.000596457, No Iterations 6
smoothSolver:  Solving for Uy, Initial residual = 0.398857, Final residual = 0.0213988, No Iterations 3
Pressure gradient source: uncorrected Ubar = 1.00002, pressure gradient = 0.00175235
GAMG:  Solving for p, Initial residual = 0.0592955, Final residual = 0.00548571, No Iterations 9
time step continuity errors : sum local = 5.23235e-05, global = -1.1435e-17, cumulative = -7.16276e-18
Pressure gradient source: uncorrected Ubar = 1, pressure gradient = 0.00199432
smoothSolver:  Solving for omega, Initial residual = 5.07145e-05, Final residual = 7.17143e-06, No Iterations 3
smoothSolver:  Solving for k, Initial residual = 0.0111762, Final residual = 0.000837836, No Iterations 5
ExecutionTime = 0.053216 s  ClockTime = 0 s

Time = 20s

smoothSolver:  Solving for Ux, Initial residual = 0.00683292, Final residual = 0.000583816, No Iterations 6
smoothSolver:  Solving for Uy, Initial residual = 0.349466, Final residual = 0.0164275, No Iterations 3
Pressure gradient source: uncorrected Ubar = 1, pressure gradient = 0.00198733
GAMG:  Solving for p, Initial residual = 0.058191, Final residual = 0.00491189, No Iterations 9
time step continuity errors : sum local = 3.84315e-05, global = 1.72985e-18, cumulative = -5.43291e-18
Pressure gradient source: uncorrected Ubar = 0.999999, pressure gradient = 0.00200769
smoothSolver:  Solving for omega, Initial residual = 4.66628e-05, Final residual = 8.58407e-06, No Iterations 3
smoothSolver:  Solving for k, Initial residual = 0.0100778, Final residual = 0.000796057, No Iterations 5
ExecutionTime = 0.055495 s  ClockTime = 0 s

Time = 21s

smoothSolver:  Solving for Ux, Initial residual = 0.00676246, Final residual = 0.000569941, No Iterations 6
smoothSolver:  Solving for Uy, Initial residual = 0.438941, Final residual = 0.0229372, No Iterations 3
Pressure gradient source: uncorrected Ubar = 0.999998, pressure gradient = 0.00205017
GAMG:  Solving for p, Initial residual = 0.0536973, Final residual = 0.00519914, No Iterations 9
time step continuity errors : sum local = 3.81672e-05, global = 1.53991e-18, cumulative = -3.893e-18
Pressure gradient source: uncorrected Ubar = 0.999999, pressure gradient = 0.00202652
smoothSolver:  Solving for omega, Initial residual = 4.59568e-05, Final residual = 7.041e-06, No Iterations 3
smoothSolver:  Solving for k, Initial residual = 0.00902027, Final residual = 0.000677293, No Iterations 5
ExecutionTime = 0.057697 s  ClockTime = 0 s

Time = 22s

smoothSolver:  Solving for Ux, Initial residual = 0.00667617, Final residual = 0.000556557, No Iterations 6
smoothSolver:  Solving for Uy, Initial residual = 0.549209, Final residual = 0.0318211, No Iterations 3
Pressure gradient source: uncorrected Ubar = 0.999989, pressure gradient = 0.00222137
GAMG:  Solving for p, Initial residual = 0.0482595, Final residual = 0.00460602, No Iterations 7
time step continuity errors : sum local = 2.92024e-05, global = 8.66854e-18, cumulative = 4.77554e-18
Pressure gradient source: uncorrected Ubar = 0.999998, pressure gradient = 0.00206424
smoothSolver:  Solving for omega, Initial residual = 4.41317e-05, Final residual = 7.55402e-06, No Iterations 3
smoothSolver:  Solving for k, Initial residual = 0.0082804, Final residual = 0.000578089, No Iterations 5
ExecutionTime = 0.059785 s  ClockTime = 0 s

Time = 23s

smoothSolver:  Solving for Ux, Initial residual = 0.00657811, Final residual = 0.000542148, No Iterations 6
smoothSolver:  Solving for Uy, Initial residual = 0.554782, Final residual = 0.0376964, No Iterations 3
Pressure gradient source: uncorrected Ubar = 0.999988, pressure gradient = 0.00228277
GAMG:  Solving for p, Initial residual = 0.0447866, Final residual = 0.00386605, No Iterations 6
time step continuity errors : sum local = 2.18032e-05, global = 4.94625e-18, cumulative = 9.72179e-18
Pressure gradient source: uncorrected Ubar = 0.999998, pressure gradient = 0.00210392
smoothSolver:  Solving for omega, Initial residual = 4.48616e-05, Final residual = 7.71012e-06, No Iterations 3
smoothSolver:  Solving for k, Initial residual = 0.00793545, Final residual = 0.000589396, No Iterations 5
ExecutionTime = 0.061952 s  ClockTime = 0 s

Time = 24s

smoothSolver:  Solving for Ux, Initial residual = 0.00648137, Final residual = 0.000528175, No Iterations 6
smoothSolver:  Solving for Uy, Initial residual = 0.41618, Final residual = 0.0305662, No Iterations 3
Pressure gradient source: uncorrected Ubar = 0.999983, pressure gradient = 0.00242182
GAMG:  Solving for p, Initial residual = 0.0404905, Final residual = 0.00398391, No Iterations 3
time step continuity errors : sum local = 2.02819e-05, global = -4.00606e-18, cumulative = 5.71573e-18
Pressure gradient source: uncorrected Ubar = 0.999997, pressure gradient = 0.00215536
smoothSolver:  Solving for omega, Initial residual = 4.33411e-05, Final residual = 6.50506e-06, No Iterations 3
smoothSolver:  Solving for k, Initial residual = 0.00740641, Final residual = 0.000543854, No Iterations 5
ExecutionTime = 0.063995 s  ClockTime = 0 s

Time = 25s

smoothSolver:  Solving for Ux, Initial residual = 0.00637824, Final residual = 0.000514478, No Iterations 6
smoothSolver:  Solving for Uy, Initial residual = 0.324887, Final residual = 0.021883, No Iterations 3
Pressure gradient source: uncorrected Ubar = 0.999981, pressure gradient = 0.00252471
GAMG:  Solving for p, Initial residual = 0.0377832, Final residual = 0.00318516, No Iterations 3
time step continuity errors : sum local = 1.47144e-05, global = -3.85718e-18, cumulative = 1.85855e-18
Pressure gradient source: uncorrected Ubar = 0.999997, pressure gradient = 0.00221195
smoothSolver:  Solving for omega, Initial residual = 4.44666e-05, Final residual = 7.62894e-06, No Iterations 3
smoothSolver:  Solving for k, Initial residual = 0.00705736, Final residual = 0.000537577, No Iterations 5
ExecutionTime = 0.066053 s  ClockTime = 0 s

Time = 26s

smoothSolver:  Solving for Ux, Initial residual = 0.0062669, Final residual = 0.000500749, No Iterations 6
smoothSolver:  Solving for Uy, Initial residual = 0.265149, Final residual = 0.0172538, No Iterations 3
Pressure gradient source: uncorrected Ubar = 0.999979, pressure gradient = 0.00262318
GAMG:  Solving for p, Initial residual = 0.0376363, Final residual = 0.00362704, No Iterations 4
time step continuity errors : sum local = 1.5153e-05, global = -2.32818e-18, cumulative = -4.69628e-19
Pressure gradient source: uncorrected Ubar = 0.999997, pressure gradient = 0.00227261
smoothSolver:  Solving for omega, Initial residual = 4.45466e-05, Final residual = 7.44708e-06, No Iterations 3
smoothSolver:  Solving for k, Initial residual = 0.00645436, Final residual = 0.000449735, No Iterations 5
ExecutionTime = 0.068129 s  ClockTime = 0 s

Time = 27s

smoothSolver:  Solving for Ux, Initial residual = 0.00616343, Final residual = 0.000488564, No Iterations 6
smoothSolver:  Solving for Uy, Initial residual = 0.219626, Final residual = 0.011688, No Iterations 3
Pressure gradient source: uncorrected Ubar = 0.999972, pressure gradient = 0.00281754
GAMG:  Solving for p, Initial residual = 0.0420473, Final residual = 0.00324639, No Iterations 8
time step continuity errors : sum local = 1.11857e-05, global = 1.50748e-18, cumulative = 1.03785e-18
Pressure gradient source: uncorrected Ubar = 0.999996, pressure gradient = 0.00234959
smoothSolver:  Solving for omega, Initial residual = 4.42023e-05, Final residual = 6.59802e-06, No Iterations 3
smoothSolver:  Solving for k, Initial residual = 0.00598352, Final residual = 0.000365364, No Iterations 5
ExecutionTime = 0.070372 s  ClockTime = 0 s

Time = 28s

smoothSolver:  Solving for Ux, Initial residual = 0.00605861, Final residual = 0.000476325, No Iterations 6
smoothSolver:  Solving for Uy, Initial residual = 0.194281, Final residual = 0.00959667, No Iterations 3
Pressure gradient source: uncorrected Ubar = 0.999973, pressure gradient = 0.0028973
GAMG:  Solving for p, Initial residual = 0.0451614, Final residual = 0.00438064, No Iterations 8
time step continuity errors : sum local = 1.19215e-05, global = -1.26906e-17, cumulative = -1.16527e-17
Pressure gradient source: uncorrected Ubar = 0.999996, pressure gradient = 0.00242502
smoothSolver:  Solving for omega, Initial residual = 4.37791e-05, Final residual = 6.07333e-06, No Iterations 3
smoothSolver:  Solving for k, Initial residual = 0.00583778, Final residual = 0.000394833, No Iterations 5
ExecutionTime = 0.072482 s  ClockTime = 0 s

Time = 29s

smoothSolver:  Solving for Ux, Initial residual = 0.00595561, Final residual = 0.00046474, No Iterations 6
smoothSolver:  Solving for Uy, Initial residual = 0.173528, Final residual = 0.00925504, No Iterations 3
Pressure gradient source: uncorrected Ubar = 0.99997, pressure gradient = 0.003029
GAMG:  Solving for p, Initial residual = 0.0578515, Final residual = 0.00405182, No Iterations 9
time step continuity errors : sum local = 8.73694e-06, global = -3.75278e-18, cumulative = -1.54055e-17
Pressure gradient source: uncorrected Ubar = 0.999996, pressure gradient = 0.00250623
smoothSolver:  Solving for omega, Initial residual = 4.38365e-05, Final residual = 7.30296e-06, No Iterations 3
smoothSolver:  Solving for k, Initial residual = 0.00548477, Final residual = 0.000375328, No Iterations 5
ExecutionTime = 0.074624 s  ClockTime = 0 s

Time = 30s

smoothSolver:  Solving for Ux, Initial residual = 0.00585813, Final residual = 0.000454182, No Iterations 6
smoothSolver:  Solving for Uy, Initial residual = 0.158981, Final residual = 0.00845686, No Iterations 3
Pressure gradient source: uncorrected Ubar = 0.999967, pressure gradient = 0.00319884
GAMG:  Solving for p, Initial residual = 0.0503229, Final residual = 0.00417067, No Iterations 9
time step continuity errors : sum local = 7.3698e-06, global = -2.33718e-18, cumulative = -1.77427e-17
Pressure gradient source: uncorrected Ubar = 0.999996, pressure gradient = 0.00259758
smoothSolver:  Solving for omega, Initial residual = 4.31054e-05, Final residual = 7.08578e-06, No Iterations 3
smoothSolver:  Solving for k, Initial residual = 0.00523912, Final residual = 0.000431116, No Iterations 5
ExecutionTime = 0.076881 s  ClockTime = 0 s

Time = 31s

smoothSolver:  Solving for Ux, Initial residual = 0.00575004, Final residual = 0.000442577, No Iterations 6
smoothSolver:  Solving for Uy, Initial residual = 0.16875, Final residual = 0.00996208, No Iterations 3
Pressure gradient source: uncorrected Ubar = 0.999973, pressure gradient = 0.00316896
GAMG:  Solving for p, Initial residual = 0.0408653, Final residual = 0.00384088, No Iterations 8
time step continuity errors : sum local = 6.71196e-06, global = -1.12531e-17, cumulative = -2.89957e-17
Pressure gradient source: uncorrected Ubar = 0.999997, pressure gradient = 0.00266944
smoothSolver:  Solving for omega, Initial residual = 4.24902e-05, Final residual = 7.37234e-06, No Iterations 3
smoothSolver:  Solving for k, Initial residual = 0.00488441, Final residual = 0.000387301, No Iterations 5
ExecutionTime = 0.079064 s  ClockTime = 0 s

Time = 32s

smoothSolver:  Solving for Ux, Initial residual = 0.0056444, Final residual = 0.000431354, No Iterations 6
smoothSolver:  Solving for Uy, Initial residual = 0.187758, Final residual = 0.0117634, No Iterations 3
Pressure gradient source: uncorrected Ubar = 0.999974, pressure gradient = 0.00322169
GAMG:  Solving for p, Initial residual = 0.0348421, Final residual = 0.00326718, No Iterations 7
time step continuity errors : sum local = 6.10532e-06, global = 1.29969e-18, cumulative = -2.7696e-17
Pressure gradient source: uncorrected Ubar = 0.999997, pressure gradient = 0.0027358
smoothSolver:  Solving for omega, Initial residual = 4.14258e-05, Final residual = 6.47863e-06, No Iterations 3
smoothSolver:  Solving for k, Initial residual = 0.00446323, Final residual = 0.000350766, No Iterations 5
ExecutionTime = 0.081297 s  ClockTime = 0 s

Time = 33s

smoothSolver:  Solving for Ux, Initial residual = 0.00554545, Final residual = 0.000420757, No Iterations 6
smoothSolver:  Solving for Uy, Initial residual = 0.187819, Final residual = 0.0129915, No Iterations 3
Pressure gradient source: uncorrected Ubar = 0.999976, pressure gradient = 0.00326734
GAMG:  Solving for p, Initial residual = 0.0304221, Final residual = 0.00263469, No Iterations 7
time step continuity errors : sum local = 4.89611e-06, global = -2.0044e-18, cumulative = -2.97004e-17
Pressure gradient source: uncorrected Ubar = 0.999997, pressure gradient = 0.00279646
smoothSolver:  Solving for omega, Initial residual = 4.08015e-05, Final residual = 6.57601e-06, No Iterations 3
smoothSolver:  Solving for k, Initial residual = 0.00416033, Final residual = 0.00026881, No Iterations 5
ExecutionTime = 0.083496 s  ClockTime = 0 s

Time = 34s

smoothSolver:  Solving for Ux, Initial residual = 0.00546147, Final residual = 0.000412067, No Iterations 6
smoothSolver:  Solving for Uy, Initial residual = 0.199692, Final residual = 0.0162947, No Iterations 3
Pressure gradient source: uncorrected Ubar = 0.999971, pressure gradient = 0.00343373
GAMG:  Solving for p, Initial residual = 0.0304034, Final residual = 0.00272575, No Iterations 4
time step continuity errors : sum local = 4.90296e-06, global = -7.15372e-18, cumulative = -3.68542e-17
Pressure gradient source: uncorrected Ubar = 0.999997, pressure gradient = 0.00286956
smoothSolver:  Solving for omega, Initial residual = 3.99584e-05, Final residual = 6.98564e-06, No Iterations 3
smoothSolver:  Solving for k, Initial residual = 0.0038816, Final residual = 0.000288132, No Iterations 5
ExecutionTime = 0.085582 s  ClockTime = 0 s

Time = 35s

smoothSolver:  Solving for Ux, Initial residual = 0.00537714, Final residual = 0.000403588, No Iterations 6
smoothSolver:  Solving for Uy, Initial residual = 0.222177, Final residual = 0.0202308, No Iterations 3
Pressure gradient source: uncorrected Ubar = 0.999972, pressure gradient = 0.00349347
GAMG:  Solving for p, Initial residual = 0.0267839, Final residual = 0.00211649, No Iterations 3
time step continuity errors : sum local = 3.30538e-06, global = -1.83625e-18, cumulative = -3.86904e-17
Pressure gradient source: uncorrected Ubar = 0.999997, pressure gradient = 0.00293855
smoothSolver:  Solving for omega, Initial residual = 3.91698e-05, Final residual = 6.96799e-06, No Iterations 3
smoothSolver:  Solving for k, Initial residual = 0.0037099, Final residual = 0.000333392, No Iterations 5
ExecutionTime = 0.087603 s  ClockTime = 0 s

Time = 36s

smoothSolver:  Solving for Ux, Initial residual = 0.00528277, Final residual = 0.000393742, No Iterations 6
smoothSolver:  Solving for Uy, Initial residual = 0.190215, Final residual = 0.0162689, No Iterations 3
Pressure gradient source: uncorrected Ubar = 0.999982, pressure gradient = 0.00335434
GAMG:  Solving for p, Initial residual = 0.0265091, Final residual = 0.00233075, No Iterations 2
time step continuity errors : sum local = 3.32582e-06, global = -3.92785e-18, cumulative = -4.26182e-17
Pressure gradient source: uncorrected Ubar = 0.999998, pressure gradient = 0.00297587
smoothSolver:  Solving for omega, Initial residual = 3.82039e-05, Final residual = 6.48562e-06, No Iterations 3
smoothSolver:  Solving for k, Initial residual = 0.00337496, Final residual = 0.000321546, No Iterations 5
ExecutionTime = 0.089575 s  ClockTime = 0 s

Time = 37s

smoothSolver:  Solving for Ux, Initial residual = 0.00519615, Final residual = 0.000384578, No Iterations 6
smoothSolver:  Solving for Uy, Initial residual = 0.153495, Final residual = 0.0109755, No Iterations 3
Pressure gradient source: uncorrected Ubar = 0.999982, pressure gradient = 0.00340045
GAMG:  Solving for p, Initial residual = 0.0263564, Final residual = 0.00144407, No Iterations 3
time step continuity errors : sum local = 1.89152e-06, global = -2.6536e-18, cumulative = -4.52718e-17
Pressure gradient source: uncorrected Ubar = 0.999998, pressure gradient = 0.00301207
smoothSolver:  Solving for omega, Initial residual = 3.71403e-05, Final residual = 6.0161e-06, No Iterations 3
smoothSolver:  Solving for k, Initial residual = 0.0031403, Final residual = 0.000288984, No Iterations 5
ExecutionTime = 0.091622 s  ClockTime = 0 s

Time = 38s

smoothSolver:  Solving for Ux, Initial residual = 0.00512421, Final residual = 0.000377191, No Iterations 6
smoothSolver:  Solving for Uy, Initial residual = 0.118772, Final residual = 0.00724269, No Iterations 3
Pressure gradient source: uncorrected Ubar = 0.999978, pressure gradient = 0.00353556
GAMG:  Solving for p, Initial residual = 0.0252401, Final residual = 0.00169249, No Iterations 3
time step continuity errors : sum local = 1.85752e-06, global = 6.56171e-18, cumulative = -3.87101e-17
Pressure gradient source: uncorrected Ubar = 0.999998, pressure gradient = 0.00306012
smoothSolver:  Solving for omega, Initial residual = 3.63757e-05, Final residual = 6.11282e-06, No Iterations 3
smoothSolver:  Solving for k, Initial residual = 0.0029323, Final residual = 0.000204508, No Iterations 5
ExecutionTime = 0.093613 s  ClockTime = 0 s

Time = 39s

smoothSolver:  Solving for Ux, Initial residual = 0.00505491, Final residual = 0.000370417, No Iterations 6
smoothSolver:  Solving for Uy, Initial residual = 0.0918557, Final residual = 0.00848118, No Iterations 2
Pressure gradient source: uncorrected Ubar = 0.999977, pressure gradient = 0.00361363
GAMG:  Solving for p, Initial residual = 0.0262313, Final residual = 0.00245052, No Iterations 3
time step continuity errors : sum local = 2.46099e-06, global = 7.49954e-18, cumulative = -3.12106e-17
Pressure gradient source: uncorrected Ubar = 0.999998, pressure gradient = 0.00311071
smoothSolver:  Solving for omega, Initial residual = 3.56003e-05, Final residual = 9.88422e-06, No Iterations 2
smoothSolver:  Solving for k, Initial residual = 0.00284801, Final residual = 0.000263949, No Iterations 5
ExecutionTime = 0.095633 s  ClockTime = 0 s

Time = 40s

smoothSolver:  Solving for Ux, Initial residual = 0.00498375, Final residual = 0.000363296, No Iterations 6
smoothSolver:  Solving for Uy, Initial residual = 0.0771253, Final residual = 0.00701582, No Iterations 2
Pressure gradient source: uncorrected Ubar = 0.999981, pressure gradient = 0.00356236
GAMG:  Solving for p, Initial residual = 0.0285238, Final residual = 0.00263438, No Iterations 7
time step continuity errors : sum local = 2.62664e-06, global = 3.238e-18, cumulative = -2.79726e-17
Pressure gradient source: uncorrected Ubar = 0.999999, pressure gradient = 0.00314538
smoothSolver:  Solving for omega, Initial residual = 3.59505e-05, Final residual = 6.08759e-06, No Iterations 3
smoothSolver:  Solving for k, Initial residual = 0.00280358, Final residual = 0.000229592, No Iterations 5
ExecutionTime = 0.097812 s  ClockTime = 0 s

Time = 41s

smoothSolver:  Solving for Ux, Initial residual = 0.00491903, Final residual = 0.000356976, No Iterations 6
smoothSolver:  Solving for Uy, Initial residual = 0.0678719, Final residual = 0.00558615, No Iterations 2
Pressure gradient source: uncorrected Ubar = 0.999979, pressure gradient = 0.00365975
GAMG:  Solving for p, Initial residual = 0.0275022, Final residual = 0.00199183, No Iterations 8
time step continuity errors : sum local = 1.85787e-06, global = 2.31176e-18, cumulative = -2.56608e-17
Pressure gradient source: uncorrected Ubar = 0.999998, pressure gradient = 0.00318731
smoothSolver:  Solving for omega, Initial residual = 3.4555e-05, Final residual = 6.08751e-06, No Iterations 3
smoothSolver:  Solving for k, Initial residual = 0.0027845, Final residual = 0.000253375, No Iterations 5
ExecutionTime = 0.100177 s  ClockTime = 0 s

Time = 42s

smoothSolver:  Solving for Ux, Initial residual = 0.00485307, Final residual = 0.00035053, No Iterations 6
smoothSolver:  Solving for Uy, Initial residual = 0.0698895, Final residual = 0.00348154, No Iterations 3
Pressure gradient source: uncorrected Ubar = 0.999982, pressure gradient = 0.00362847
GAMG:  Solving for p, Initial residual = 0.0288053, Final residual = 0.00283638, No Iterations 7
time step continuity errors : sum local = 1.996e-06, global = -1.05767e-17, cumulative = -3.62376e-17
Pressure gradient source: uncorrected Ubar = 0.999999, pressure gradient = 0.00321723
smoothSolver:  Solving for omega, Initial residual = 3.34638e-05, Final residual = 9.1896e-06, No Iterations 2
smoothSolver:  Solving for k, Initial residual = 0.00273295, Final residual = 0.000215168, No Iterations 5
ExecutionTime = 0.10232 s  ClockTime = 0 s

Time = 43s

smoothSolver:  Solving for Ux, Initial residual = 0.00480038, Final residual = 0.000345711, No Iterations 6
smoothSolver:  Solving for Uy, Initial residual = 0.0690302, Final residual = 0.00406558, No Iterations 3
Pressure gradient source: uncorrected Ubar = 0.999979, pressure gradient = 0.00374748
GAMG:  Solving for p, Initial residual = 0.0289628, Final residual = 0.00275566, No Iterations 10
time step continuity errors : sum local = 1.7776e-06, global = -9.27594e-18, cumulative = -4.55135e-17
Pressure gradient source: uncorrected Ubar = 0.999998, pressure gradient = 0.00325856
smoothSolver:  Solving for omega, Initial residual = 3.39476e-05, Final residual = 9.60285e-06, No Iterations 2
smoothSolver:  Solving for k, Initial residual = 0.00274991, Final residual = 0.00021264, No Iterations 5
ExecutionTime = 0.104529 s  ClockTime = 0 s

Time = 44s

smoothSolver:  Solving for Ux, Initial residual = 0.00474735, Final residual = 0.000340743, No Iterations 6
smoothSolver:  Solving for Uy, Initial residual = 0.0631197, Final residual = 0.00375332, No Iterations 3
Pressure gradient source: uncorrected Ubar = 0.99998, pressure gradient = 0.00376589
GAMG:  Solving for p, Initial residual = 0.026563, Final residual = 0.00258618, No Iterations 12
time step continuity errors : sum local = 1.50686e-06, global = 2.67506e-18, cumulative = -4.28385e-17
Pressure gradient source: uncorrected Ubar = 0.999999, pressure gradient = 0.00329557
smoothSolver:  Solving for omega, Initial residual = 3.37763e-05, Final residual = 6.41088e-06, No Iterations 3
smoothSolver:  Solving for k, Initial residual = 0.00283684, Final residual = 0.000239191, No Iterations 5
ExecutionTime = 0.106851 s  ClockTime = 0 s

Time = 45s

smoothSolver:  Solving for Ux, Initial residual = 0.00469202, Final residual = 0.000335525, No Iterations 6
smoothSolver:  Solving for Uy, Initial residual = 0.0602538, Final residual = 0.00405883, No Iterations 3
Pressure gradient source: uncorrected Ubar = 0.999982, pressure gradient = 0.00375911
GAMG:  Solving for p, Initial residual = 0.0306201, Final residual = 0.00255339, No Iterations 8
time step continuity errors : sum local = 1.45745e-06, global = -2.77959e-19, cumulative = -4.31164e-17
Pressure gradient source: uncorrected Ubar = 0.999999, pressure gradient = 0.00332513
smoothSolver:  Solving for omega, Initial residual = 3.20663e-05, Final residual = 9.15956e-06, No Iterations 2
smoothSolver:  Solving for k, Initial residual = 0.00286362, Final residual = 0.000243006, No Iterations 5
ExecutionTime = 0.109061 s  ClockTime = 0 s

Time = 46s

smoothSolver:  Solving for Ux, Initial residual = 0.00464516, Final residual = 0.000331212, No Iterations 6
smoothSolver:  Solving for Uy, Initial residual = 0.0601411, Final residual = 0.00371748, No Iterations 3
Pressure gradient source: uncorrected Ubar = 0.99998, pressure gradient = 0.00382654
GAMG:  Solving for p, Initial residual = 0.031604, Final residual = 0.00275994, No Iterations 9
time step continuity errors : sum local = 1.4728e-06, global = 1.01705e-18, cumulative = -4.20994e-17
Pressure gradient source: uncorrected Ubar = 0.999999, pressure gradient = 0.00335911
smoothSolver:  Solving for omega, Initial residual = 3.22543e-05, Final residual = 9.42893e-06, No Iterations 2
smoothSolver:  Solving for k, Initial residual = 0.00292233, Final residual = 0.000254552, No Iterations 5
ExecutionTime = 0.111297 s  ClockTime = 0 s

Time = 47s

smoothSolver:  Solving for Ux, Initial residual = 0.00459461, Final residual = 0.000326409, No Iterations 6
smoothSolver:  Solving for Uy, Initial residual = 0.0571186, Final residual = 0.00401275, No Iterations 3
Pressure gradient source: uncorrected Ubar = 0.999983, pressure gradient = 0.00378331
GAMG:  Solving for p, Initial residual = 0.0301867, Final residual = 0.00262195, No Iterations 8
time step continuity errors : sum local = 1.23017e-06, global = 1.39304e-18, cumulative = -4.07063e-17
Pressure gradient source: uncorrected Ubar = 0.999999, pressure gradient = 0.00338131
smoothSolver:  Solving for omega, Initial residual = 3.19207e-05, Final residual = 9.67391e-06, No Iterations 2
smoothSolver:  Solving for k, Initial residual = 0.00290752, Final residual = 0.00023516, No Iterations 5
ExecutionTime = 0.113374 s  ClockTime = 0 s

Time = 48s

smoothSolver:  Solving for Ux, Initial residual = 0.00455026, Final residual = 0.000322242, No Iterations 6
smoothSolver:  Solving for Uy, Initial residual = 0.0600487, Final residual = 0.00409792, No Iterations 3
Pressure gradient source: uncorrected Ubar = 0.999982, pressure gradient = 0.00384146
GAMG:  Solving for p, Initial residual = 0.028394, Final residual = 0.00256803, No Iterations 7
time step continuity errors : sum local = 1.17029e-06, global = -7.10026e-19, cumulative = -4.14164e-17
Pressure gradient source: uncorrected Ubar = 0.999999, pressure gradient = 0.00340773
smoothSolver:  Solving for omega, Initial residual = 3.14336e-05, Final residual = 9.54905e-06, No Iterations 2
smoothSolver:  Solving for k, Initial residual = 0.00303231, Final residual = 0.000270039, No Iterations 5
ExecutionTime = 0.115752 s  ClockTime = 0 s

Time = 49s

smoothSolver:  Solving for Ux, Initial residual = 0.00450461, Final residual = 0.000318446, No Iterations 6
smoothSolver:  Solving for Uy, Initial residual = 0.120358, Final residual = 0.00597361, No Iterations 4
Pressure gradient source: uncorrected Ubar = 0.999982, pressure gradient = 0.00387143
GAMG:  Solving for p, Initial residual = 0.0395212, Final residual = 0.00385304, No Iterations 6
time step continuity errors : sum local = 1.45785e-06, global = -2.91935e-18, cumulative = -4.43357e-17
Pressure gradient source: uncorrected Ubar = 0.999999, pressure gradient = 0.00343409
smoothSolver:  Solving for omega, Initial residual = 3.07457e-05, Final residual = 8.61736e-06, No Iterations 2
smoothSolver:  Solving for k, Initial residual = 0.00305262, Final residual = 0.000271568, No Iterations 5
ExecutionTime = 0.117901 s  ClockTime = 0 s

Time = 50s

smoothSolver:  Solving for Ux, Initial residual = 0.00446347, Final residual = 0.000314735, No Iterations 6
smoothSolver:  Solving for Uy, Initial residual = 0.0930107, Final residual = 0.00532709, No Iterations 4
Pressure gradient source: uncorrected Ubar = 0.999983, pressure gradient = 0.00387862
GAMG:  Solving for p, Initial residual = 0.0275588, Final residual = 0.00251291, No Iterations 12
time step continuity errors : sum local = 1.03746e-06, global = 8.68538e-18, cumulative = -3.56503e-17
Pressure gradient source: uncorrected Ubar = 0.999999, pressure gradient = 0.00345714
smoothSolver:  Solving for omega, Initial residual = 3.06118e-05, Final residual = 9.18574e-06, No Iterations 2
smoothSolver:  Solving for k, Initial residual = 0.0031186, Final residual = 0.000250385, No Iterations 5
ExecutionTime = 0.120144 s  ClockTime = 0 s

Time = 51s

smoothSolver:  Solving for Ux, Initial residual = 0.00442307, Final residual = 0.000311248, No Iterations 6
smoothSolver:  Solving for Uy, Initial residual = 0.0727861, Final residual = 0.00429753, No Iterations 4
Pressure gradient source: uncorrected Ubar = 0.999982, pressure gradient = 0.0039271
GAMG:  Solving for p, Initial residual = 0.0285294, Final residual = 0.00203861, No Iterations 12
time step continuity errors : sum local = 8.84241e-07, global = 1.02693e-18, cumulative = -3.46234e-17
Pressure gradient source: uncorrected Ubar = 0.999999, pressure gradient = 0.00348322
smoothSolver:  Solving for omega, Initial residual = 3.0132e-05, Final residual = 9.16314e-06, No Iterations 2
smoothSolver:  Solving for k, Initial residual = 0.00321648, Final residual = 0.000281551, No Iterations 5
ExecutionTime = 0.122459 s  ClockTime = 0 s

Time = 52s

smoothSolver:  Solving for Ux, Initial residual = 0.00438045, Final residual = 0.000307295, No Iterations 6
smoothSolver:  Solving for Uy, Initial residual = 0.0571151, Final residual = 0.0055482, No Iterations 3
Pressure gradient source: uncorrected Ubar = 0.999985, pressure gradient = 0.00387937
GAMG:  Solving for p, Initial residual = 0.0276796, Final residual = 0.00254766, No Iterations 9
time step continuity errors : sum local = 9.14974e-07, global = -8.6991e-18, cumulative = -4.33225e-17
Pressure gradient source: uncorrected Ubar = 0.999999, pressure gradient = 0.00349824
smoothSolver:  Solving for omega, Initial residual = 2.95564e-05, Final residual = 8.77327e-06, No Iterations 2
smoothSolver:  Solving for k, Initial residual = 0.0032055, Final residual = 0.000264532, No Iterations 5
ExecutionTime = 0.124631 s  ClockTime = 0 s

Time = 53s

smoothSolver:  Solving for Ux, Initial residual = 0.00434222, Final residual = 0.000303784, No Iterations 6
smoothSolver:  Solving for Uy, Initial residual = 0.0545719, Final residual = 0.00421371, No Iterations 3
Pressure gradient source: uncorrected Ubar = 0.999984, pressure gradient = 0.00391899
GAMG:  Solving for p, Initial residual = 0.0324261, Final residual = 0.00249738, No Iterations 9
time step continuity errors : sum local = 8.62844e-07, global = 4.43679e-18, cumulative = -3.88857e-17
Pressure gradient source: uncorrected Ubar = 0.999999, pressure gradient = 0.00351625
smoothSolver:  Solving for omega, Initial residual = 2.89842e-05, Final residual = 8.87348e-06, No Iterations 2
smoothSolver:  Solving for k, Initial residual = 0.00328385, Final residual = 0.000298628, No Iterations 5
ExecutionTime = 0.126772 s  ClockTime = 0 s

Time = 54s

smoothSolver:  Solving for Ux, Initial residual = 0.00430514, Final residual = 0.000300511, No Iterations 6
smoothSolver:  Solving for Uy, Initial residual = 0.041676, Final residual = 0.00289473, No Iterations 3
Pressure gradient source: uncorrected Ubar = 0.999984, pressure gradient = 0.00393631
GAMG:  Solving for p, Initial residual = 0.0255184, Final residual = 0.00255103, No Iterations 9
time step continuity errors : sum local = 9.19513e-07, global = -6.09964e-18, cumulative = -4.49853e-17
Pressure gradient source: uncorrected Ubar = 0.999999, pressure gradient = 0.00353383
smoothSolver:  Solving for omega, Initial residual = 2.87103e-05, Final residual = 9.36915e-06, No Iterations 2
smoothSolver:  Solving for k, Initial residual = 0.00342534, Final residual = 0.000220895, No Iterations 6
ExecutionTime = 0.128944 s  ClockTime = 0 s

Time = 55s

smoothSolver:  Solving for Ux, Initial residual = 0.00426251, Final residual = 0.000296994, No Iterations 6
smoothSolver:  Solving for Uy, Initial residual = 0.041496, Final residual = 0.00343402, No Iterations 3
Pressure gradient source: uncorrected Ubar = 0.999985, pressure gradient = 0.00393196
GAMG:  Solving for p, Initial residual = 0.0230871, Final residual = 0.00229037, No Iterations 6
time step continuity errors : sum local = 8.48434e-07, global = 1.80491e-18, cumulative = -4.31804e-17
Pressure gradient source: uncorrected Ubar = 0.999999, pressure gradient = 0.00354795
smoothSolver:  Solving for omega, Initial residual = 2.80433e-05, Final residual = 8.65334e-06, No Iterations 2
smoothSolver:  Solving for k, Initial residual = 0.00344874, Final residual = 0.000329071, No Iterations 5
ExecutionTime = 0.131223 s  ClockTime = 0 s

Time = 56s

smoothSolver:  Solving for Ux, Initial residual = 0.00422293, Final residual = 0.000293398, No Iterations 6
smoothSolver:  Solving for Uy, Initial residual = 0.0411023, Final residual = 0.00390823, No Iterations 3
Pressure gradient source: uncorrected Ubar = 0.999987, pressure gradient = 0.0039082
GAMG:  Solving for p, Initial residual = 0.0225871, Final residual = 0.00209216, No Iterations 7
time step continuity errors : sum local = 6.36062e-07, global = 6.40968e-18, cumulative = -3.67708e-17
Pressure gradient source: uncorrected Ubar = 1, pressure gradient = 0.00355648
smoothSolver:  Solving for omega, Initial residual = 2.74586e-05, Final residual = 8.27288e-06, No Iterations 2
smoothSolver:  Solving for k, Initial residual = 0.00346112, Final residual = 0.000311836, No Iterations 5
ExecutionTime = 0.133414 s  ClockTime = 0 s

Time = 57s

smoothSolver:  Solving for Ux, Initial residual = 0.00418755, Final residual = 0.000290082, No Iterations 6
smoothSolver:  Solving for Uy, Initial residual = 0.0613833, Final residual = 0.00323752, No Iterations 4
Pressure gradient source: uncorrected Ubar = 0.999986, pressure gradient = 0.00394765
GAMG:  Solving for p, Initial residual = 0.0382272, Final residual = 0.00344239, No Iterations 5
time step continuity errors : sum local = 1.05445e-06, global = 3.35937e-18, cumulative = -3.34114e-17
Pressure gradient source: uncorrected Ubar = 1, pressure gradient = 0.00356907
smoothSolver:  Solving for omega, Initial residual = 2.69587e-05, Final residual = 8.15761e-06, No Iterations 2
smoothSolver:  Solving for k, Initial residual = 0.00350566, Final residual = 0.000289591, No Iterations 5
ExecutionTime = 0.135503 s  ClockTime = 1 s

Time = 58s

smoothSolver:  Solving for Ux, Initial residual = 0.00415126, Final residual = 0.000286878, No Iterations 6
smoothSolver:  Solving for Uy, Initial residual = 0.0405718, Final residual = 0.00366448, No Iterations 3
Pressure gradient source: uncorrected Ubar = 0.999986, pressure gradient = 0.00395496
GAMG:  Solving for p, Initial residual = 0.0201539, Final residual = 0.00153657, No Iterations 10
time step continuity errors : sum local = 5.35476e-07, global = 1.42506e-18, cumulative = -3.19863e-17
Pressure gradient source: uncorrected Ubar = 1, pressure gradient = 0.0035807
smoothSolver:  Solving for omega, Initial residual = 2.6597e-05, Final residual = 8.49253e-06, No Iterations 2
smoothSolver:  Solving for k, Initial residual = 0.00367822, Final residual = 0.000248813, No Iterations 6
ExecutionTime = 0.137827 s  ClockTime = 1 s

Time = 59s

smoothSolver:  Solving for Ux, Initial residual = 0.00410879, Final residual = 0.000283181, No Iterations 6
smoothSolver:  Solving for Uy, Initial residual = 0.0354461, Final residual = 0.00331794, No Iterations 3
Pressure gradient source: uncorrected Ubar = 0.999987, pressure gradient = 0.00393561
GAMG:  Solving for p, Initial residual = 0.0187961, Final residual = 0.00173337, No Iterations 10
time step continuity errors : sum local = 5.70338e-07, global = 3.74819e-18, cumulative = -2.82381e-17
Pressure gradient source: uncorrected Ubar = 1, pressure gradient = 0.00358785
smoothSolver:  Solving for omega, Initial residual = 2.61229e-05, Final residual = 8.13365e-06, No Iterations 2
smoothSolver:  Solving for k, Initial residual = 0.00369799, Final residual = 0.000348477, No Iterations 5
ExecutionTime = 0.14 s  ClockTime = 1 s

Time = 60s

smoothSolver:  Solving for Ux, Initial residual = 0.00406998, Final residual = 0.00027959, No Iterations 6
smoothSolver:  Solving for Uy, Initial residual = 0.0407097, Final residual = 0.00292274, No Iterations 4
Pressure gradient source: uncorrected Ubar = 0.999988, pressure gradient = 0.00393119
GAMG:  Solving for p, Initial residual = 0.0266281, Final residual = 0.00230544, No Iterations 5
time step continuity errors : sum local = 6.80957e-07, global = 8.81001e-18, cumulative = -1.94281e-17
Pressure gradient source: uncorrected Ubar = 1, pressure gradient = 0.00359323
smoothSolver:  Solving for omega, Initial residual = 2.55099e-05, Final residual = 7.99584e-06, No Iterations 2
smoothSolver:  Solving for k, Initial residual = 0.00373813, Final residual = 0.000366459, No Iterations 5
ExecutionTime = 0.141987 s  ClockTime = 1 s

Time = 61s

smoothSolver:  Solving for Ux, Initial residual = 0.00403321, Final residual = 0.00027637, No Iterations 6
smoothSolver:  Solving for Uy, Initial residual = 0.0561197, Final residual = 0.00505648, No Iterations 3
Pressure gradient source: uncorrected Ubar = 0.999986, pressure gradient = 0.00397179
GAMG:  Solving for p, Initial residual = 0.0340979, Final residual = 0.00333853, No Iterations 5
time step continuity errors : sum local = 9.62151e-07, global = 3.92036e-18, cumulative = -1.55078e-17
Pressure gradient source: uncorrected Ubar = 1, pressure gradient = 0.00360352
smoothSolver:  Solving for omega, Initial residual = 2.50099e-05, Final residual = 7.68858e-06, No Iterations 2
smoothSolver:  Solving for k, Initial residual = 0.00369726, Final residual = 0.000277991, No Iterations 5
ExecutionTime = 0.144028 s  ClockTime = 1 s

Time = 62s

smoothSolver:  Solving for Ux, Initial residual = 0.00400059, Final residual = 0.000273357, No Iterations 6
smoothSolver:  Solving for Uy, Initial residual = 0.0533874, Final residual = 0.00444812, No Iterations 3
Pressure gradient source: uncorrected Ubar = 0.999986, pressure gradient = 0.00398588
GAMG:  Solving for p, Initial residual = 0.0298633, Final residual = 0.00250398, No Iterations 9
time step continuity errors : sum local = 7.29202e-07, global = -5.79274e-18, cumulative = -2.13005e-17
Pressure gradient source: uncorrected Ubar = 1, pressure gradient = 0.00361433
smoothSolver:  Solving for omega, Initial residual = 2.46472e-05, Final residual = 7.8175e-06, No Iterations 2
smoothSolver:  Solving for k, Initial residual = 0.00392654, Final residual = 0.000383461, No Iterations 5
ExecutionTime = 0.146344 s  ClockTime = 1 s

Time = 63s

smoothSolver:  Solving for Ux, Initial residual = 0.00396518, Final residual = 0.000270147, No Iterations 6
smoothSolver:  Solving for Uy, Initial residual = 0.0394415, Final residual = 0.00296097, No Iterations 3
Pressure gradient source: uncorrected Ubar = 0.999988, pressure gradient = 0.00395986
GAMG:  Solving for p, Initial residual = 0.0222151, Final residual = 0.00209166, No Iterations 12
time step continuity errors : sum local = 6.2417e-07, global = -1.72009e-17, cumulative = -3.85014e-17
Pressure gradient source: uncorrected Ubar = 1, pressure gradient = 0.00361997
smoothSolver:  Solving for omega, Initial residual = 2.42115e-05, Final residual = 7.58798e-06, No Iterations 2
smoothSolver:  Solving for k, Initial residual = 0.00404994, Final residual = 0.000275271, No Iterations 6
ExecutionTime = 0.148684 s  ClockTime = 1 s

Time = 64s

smoothSolver:  Solving for Ux, Initial residual = 0.00392202, Final residual = 0.000266352, No Iterations 6
smoothSolver:  Solving for Uy, Initial residual = 0.0492647, Final residual = 0.00350595, No Iterations 4
Pressure gradient source: uncorrected Ubar = 0.999989, pressure gradient = 0.00393757
GAMG:  Solving for p, Initial residual = 0.0241808, Final residual = 0.00225577, No Iterations 6
time step continuity errors : sum local = 5.89724e-07, global = -5.49116e-18, cumulative = -4.39926e-17
Pressure gradient source: uncorrected Ubar = 1, pressure gradient = 0.00362178
smoothSolver:  Solving for omega, Initial residual = 2.37007e-05, Final residual = 7.61983e-06, No Iterations 2
smoothSolver:  Solving for k, Initial residual = 0.00406968, Final residual = 0.000259738, No Iterations 6
ExecutionTime = 0.150833 s  ClockTime = 1 s

Time = 65s

smoothSolver:  Solving for Ux, Initial residual = 0.00388243, Final residual = 0.00026279, No Iterations 6
smoothSolver:  Solving for Uy, Initial residual = 0.0621462, Final residual = 0.00341218, No Iterations 4
Pressure gradient source: uncorrected Ubar = 0.999988, pressure gradient = 0.00396678
GAMG:  Solving for p, Initial residual = 0.0395762, Final residual = 0.00384266, No Iterations 4
time step continuity errors : sum local = 1.02657e-06, global = -6.13938e-18, cumulative = -5.0132e-17
Pressure gradient source: uncorrected Ubar = 1, pressure gradient = 0.00362751
smoothSolver:  Solving for omega, Initial residual = 2.32609e-05, Final residual = 7.65839e-06, No Iterations 2
smoothSolver:  Solving for k, Initial residual = 0.00411328, Final residual = 0.000410014, No Iterations 5
ExecutionTime = 0.152923 s  ClockTime = 1 s

Time = 66s

smoothSolver:  Solving for Ux, Initial residual = 0.00384381, Final residual = 0.000259412, No Iterations 6
smoothSolver:  Solving for Uy, Initial residual = 0.0451241, Final residual = 0.00354552, No Iterations 3
Pressure gradient source: uncorrected Ubar = 0.999987, pressure gradient = 0.00398957
GAMG:  Solving for p, Initial residual = 0.024407, Final residual = 0.00228665, No Iterations 8
time step continuity errors : sum local = 6.83831e-07, global = -1.96473e-18, cumulative = -5.20967e-17
Pressure gradient source: uncorrected Ubar = 1, pressure gradient = 0.0036358
smoothSolver:  Solving for omega, Initial residual = 2.28652e-05, Final residual = 7.55971e-06, No Iterations 2
smoothSolver:  Solving for k, Initial residual = 0.00420695, Final residual = 0.000408356, No Iterations 5
ExecutionTime = 0.155036 s  ClockTime = 1 s

Time = 67s

smoothSolver:  Solving for Ux, Initial residual = 0.00380569, Final residual = 0.000255968, No Iterations 6
smoothSolver:  Solving for Uy, Initial residual = 0.0471462, Final residual = 0.00399235, No Iterations 3
Pressure gradient source: uncorrected Ubar = 0.999988, pressure gradient = 0.00396275
GAMG:  Solving for p, Initial residual = 0.0328915, Final residual = 0.0028066, No Iterations 3
time step continuity errors : sum local = 7.32646e-07, global = 3.84376e-18, cumulative = -4.82529e-17
Pressure gradient source: uncorrected Ubar = 1, pressure gradient = 0.0036393
smoothSolver:  Solving for omega, Initial residual = 2.22766e-05, Final residual = 6.68104e-06, No Iterations 2
smoothSolver:  Solving for k, Initial residual = 0.00435617, Final residual = 0.000300654, No Iterations 6
ExecutionTime = 0.156993 s  ClockTime = 1 s

Time = 68s

smoothSolver:  Solving for Ux, Initial residual = 0.00376449, Final residual = 0.000252064, No Iterations 6
smoothSolver:  Solving for Uy, Initial residual = 0.054591, Final residual = 0.00541911, No Iterations 3
Pressure gradient source: uncorrected Ubar = 0.999989, pressure gradient = 0.00395378
GAMG:  Solving for p, Initial residual = 0.0304694, Final residual = 0.00290511, No Iterations 4
time step continuity errors : sum local = 7.5609e-07, global = -2.33752e-18, cumulative = -5.05905e-17
Pressure gradient source: uncorrected Ubar = 1, pressure gradient = 0.00364121
smoothSolver:  Solving for omega, Initial residual = 2.19223e-05, Final residual = 7.082e-06, No Iterations 2
smoothSolver:  Solving for k, Initial residual = 0.00447445, Final residual = 0.000334991, No Iterations 6
ExecutionTime = 0.158946 s  ClockTime = 1 s

Time = 69s

smoothSolver:  Solving for Ux, Initial residual = 0.00372265, Final residual = 0.000248372, No Iterations 6
smoothSolver:  Solving for Uy, Initial residual = 0.0663842, Final residual = 0.00321188, No Iterations 4
Pressure gradient source: uncorrected Ubar = 0.999988, pressure gradient = 0.00399445
GAMG:  Solving for p, Initial residual = 0.0293852, Final residual = 0.00249049, No Iterations 9
time step continuity errors : sum local = 7.10771e-07, global = -4.00633e-19, cumulative = -5.09911e-17
Pressure gradient source: uncorrected Ubar = 1, pressure gradient = 0.00364884
smoothSolver:  Solving for omega, Initial residual = 2.15284e-05, Final residual = 7.24033e-06, No Iterations 2
smoothSolver:  Solving for k, Initial residual = 0.00432552, Final residual = 0.000347289, No Iterations 5
ExecutionTime = 0.161176 s  ClockTime = 1 s

Time = 70s

smoothSolver:  Solving for Ux, Initial residual = 0.00368585, Final residual = 0.000245157, No Iterations 6
smoothSolver:  Solving for Uy, Initial residual = 0.0726428, Final residual = 0.00685623, No Iterations 3
Pressure gradient source: uncorrected Ubar = 0.999987, pressure gradient = 0.0040145
GAMG:  Solving for p, Initial residual = 0.0312049, Final residual = 0.00278909, No Iterations 9
time step continuity errors : sum local = 7.63026e-07, global = -4.06749e-18, cumulative = -5.50586e-17
Pressure gradient source: uncorrected Ubar = 1, pressure gradient = 0.0036585
smoothSolver:  Solving for omega, Initial residual = 2.10233e-05, Final residual = 6.57138e-06, No Iterations 2
smoothSolver:  Solving for k, Initial residual = 0.00453391, Final residual = 0.000296664, No Iterations 6
ExecutionTime = 0.163377 s  ClockTime = 1 s

Time = 71s

smoothSolver:  Solving for Ux, Initial residual = 0.0036465, Final residual = 0.000241536, No Iterations 6
smoothSolver:  Solving for Uy, Initial residual = 0.049965, Final residual = 0.00480182, No Iterations 3
Pressure gradient source: uncorrected Ubar = 0.999988, pressure gradient = 0.00399812
GAMG:  Solving for p, Initial residual = 0.0314171, Final residual = 0.00311689, No Iterations 5
time step continuity errors : sum local = 7.7506e-07, global = -2.00264e-18, cumulative = -5.70612e-17
Pressure gradient source: uncorrected Ubar = 1, pressure gradient = 0.00366477
smoothSolver:  Solving for omega, Initial residual = 2.06906e-05, Final residual = 6.33271e-06, No Iterations 2
smoothSolver:  Solving for k, Initial residual = 0.0047281, Final residual = 0.000354494, No Iterations 6
ExecutionTime = 0.165641 s  ClockTime = 1 s

Time = 72s

smoothSolver:  Solving for Ux, Initial residual = 0.00359924, Final residual = 0.000359465, No Iterations 5
smoothSolver:  Solving for Uy, Initial residual = 0.0520506, Final residual = 0.00431485, No Iterations 3
Pressure gradient source: uncorrected Ubar = 0.999982, pressure gradient = 0.00416925
GAMG:  Solving for p, Initial residual = 0.0307522, Final residual = 0.00218562, No Iterations 4
time step continuity errors : sum local = 5.64299e-07, global = 3.79192e-18, cumulative = -5.32693e-17
Pressure gradient source: uncorrected Ubar = 0.999999, pressure gradient = 0.00368346
smoothSolver:  Solving for omega, Initial residual = 2.01935e-05, Final residual = 7.01722e-06, No Iterations 2
smoothSolver:  Solving for k, Initial residual = 0.00480475, Final residual = 0.000340237, No Iterations 6
ExecutionTime = 0.167765 s  ClockTime = 1 s

Time = 73s

smoothSolver:  Solving for Ux, Initial residual = 0.00355072, Final residual = 0.000353954, No Iterations 5
smoothSolver:  Solving for Uy, Initial residual = 0.060256, Final residual = 0.0036556, No Iterations 4
Pressure gradient source: uncorrected Ubar = 0.999985, pressure gradient = 0.00412565
GAMG:  Solving for p, Initial residual = 0.0334272, Final residual = 0.00327621, No Iterations 6
time step continuity errors : sum local = 9.61311e-07, global = 8.60527e-18, cumulative = -4.4664e-17
Pressure gradient source: uncorrected Ubar = 1, pressure gradient = 0.00369329
smoothSolver:  Solving for omega, Initial residual = 1.96869e-05, Final residual = 6.55309e-06, No Iterations 2
smoothSolver:  Solving for k, Initial residual = 0.00476226, Final residual = 0.00043989, No Iterations 5
ExecutionTime = 0.169866 s  ClockTime = 1 s

Time = 74s

smoothSolver:  Solving for Ux, Initial residual = 0.00350657, Final residual = 0.000349303, No Iterations 5
smoothSolver:  Solving for Uy, Initial residual = 0.063854, Final residual = 0.00388114, No Iterations 4
Pressure gradient source: uncorrected Ubar = 0.999984, pressure gradient = 0.00414833
GAMG:  Solving for p, Initial residual = 0.0352036, Final residual = 0.00282483, No Iterations 3
time step continuity errors : sum local = 7.25993e-07, global = 2.68946e-18, cumulative = -4.19746e-17
Pressure gradient source: uncorrected Ubar = 1, pressure gradient = 0.00370542
smoothSolver:  Solving for omega, Initial residual = 1.91578e-05, Final residual = 5.82576e-06, No Iterations 2
smoothSolver:  Solving for k, Initial residual = 0.00482725, Final residual = 0.000397478, No Iterations 5
ExecutionTime = 0.171831 s  ClockTime = 1 s

Time = 75s

smoothSolver:  Solving for Ux, Initial residual = 0.00344987, Final residual = 0.000343837, No Iterations 5
smoothSolver:  Solving for Uy, Initial residual = 0.0516295, Final residual = 0.00296753, No Iterations 4
Pressure gradient source: uncorrected Ubar = 0.999985, pressure gradient = 0.00413405
GAMG:  Solving for p, Initial residual = 0.0297844, Final residual = 0.00241393, No Iterations 3
time step continuity errors : sum local = 6.38174e-07, global = -3.08472e-18, cumulative = -4.50593e-17
Pressure gradient source: uncorrected Ubar = 1, pressure gradient = 0.00371414
smoothSolver:  Solving for omega, Initial residual = 1.89432e-05, Final residual = 6.11513e-06, No Iterations 2
smoothSolver:  Solving for k, Initial residual = 0.00513349, Final residual = 0.000399932, No Iterations 6
ExecutionTime = 0.173728 s  ClockTime = 1 s

Time = 76s

smoothSolver:  Solving for Ux, Initial residual = 0.00337604, Final residual = 0.000336734, No Iterations 5
smoothSolver:  Solving for Uy, Initial residual = 0.0751849, Final residual = 0.00576969, No Iterations 4
Pressure gradient source: uncorrected Ubar = 0.999987, pressure gradient = 0.00410156
GAMG:  Solving for p, Initial residual = 0.0289973, Final residual = 0.00288881, No Iterations 7
time step continuity errors : sum local = 8.77445e-07, global = 6.17059e-18, cumulative = -3.88887e-17
Pressure gradient source: uncorrected Ubar = 1, pressure gradient = 0.00371725
smoothSolver:  Solving for omega, Initial residual = 1.85549e-05, Final residual = 6.22902e-06, No Iterations 2
smoothSolver:  Solving for k, Initial residual = 0.00524031, Final residual = 0.000370577, No Iterations 6
ExecutionTime = 0.175976 s  ClockTime = 1 s

Time = 77s

smoothSolver:  Solving for Ux, Initial residual = 0.00331323, Final residual = 0.000329854, No Iterations 5
smoothSolver:  Solving for Uy, Initial residual = 0.0600509, Final residual = 0.00413889, No Iterations 4
Pressure gradient source: uncorrected Ubar = 0.999987, pressure gradient = 0.00409892
GAMG:  Solving for p, Initial residual = 0.0325939, Final residual = 0.00262332, No Iterations 9
time step continuity errors : sum local = 7.95087e-07, global = 7.6307e-18, cumulative = -3.1258e-17
Pressure gradient source: uncorrected Ubar = 1, pressure gradient = 0.00372007
smoothSolver:  Solving for omega, Initial residual = 1.813e-05, Final residual = 9.80887e-06, No Iterations 1
smoothSolver:  Solving for k, Initial residual = 0.0054044, Final residual = 0.000363192, No Iterations 6
ExecutionTime = 0.178175 s  ClockTime = 1 s

Time = 78s

smoothSolver:  Solving for Ux, Initial residual = 0.00323853, Final residual = 0.000321567, No Iterations 5
smoothSolver:  Solving for Uy, Initial residual = 0.0357418, Final residual = 0.00205435, No Iterations 4
Pressure gradient source: uncorrected Ubar = 0.999988, pressure gradient = 0.00407813
GAMG:  Solving for p, Initial residual = 0.0198309, Final residual = 0.00167329, No Iterations 4
time step continuity errors : sum local = 5.32205e-07, global = 6.11706e-18, cumulative = -2.51409e-17
Pressure gradient source: uncorrected Ubar = 1, pressure gradient = 0.00372029
smoothSolver:  Solving for omega, Initial residual = 1.90339e-05, Final residual = 6.73359e-06, No Iterations 2
smoothSolver:  Solving for k, Initial residual = 0.00544743, Final residual = 0.000483216, No Iterations 5
ExecutionTime = 0.180222 s  ClockTime = 1 s

Time = 79s

smoothSolver:  Solving for Ux, Initial residual = 0.0031909, Final residual = 0.000316231, No Iterations 5
smoothSolver:  Solving for Uy, Initial residual = 0.0576134, Final residual = 0.00418065, No Iterations 4
Pressure gradient source: uncorrected Ubar = 0.999985, pressure gradient = 0.00414097
GAMG:  Solving for p, Initial residual = 0.0251846, Final residual = 0.00203663, No Iterations 3
time step continuity errors : sum local = 6.08118e-07, global = 1.72424e-18, cumulative = -2.34167e-17
Pressure gradient source: uncorrected Ubar = 1, pressure gradient = 0.00373026
smoothSolver:  Solving for omega, Initial residual = 1.778e-05, Final residual = 9.80952e-06, No Iterations 1
smoothSolver:  Solving for k, Initial residual = 0.00578481, Final residual = 0.000441044, No Iterations 6
ExecutionTime = 0.182385 s  ClockTime = 1 s

Time = 80s

smoothSolver:  Solving for Ux, Initial residual = 0.00311942, Final residual = 0.000308118, No Iterations 5
smoothSolver:  Solving for Uy, Initial residual = 0.0440104, Final residual = 0.002649, No Iterations 4
Pressure gradient source: uncorrected Ubar = 0.999988, pressure gradient = 0.00408164
GAMG:  Solving for p, Initial residual = 0.0167989, Final residual = 0.000965267, No Iterations 4
time step continuity errors : sum local = 3.05498e-07, global = -6.99257e-18, cumulative = -3.04093e-17
Pressure gradient source: uncorrected Ubar = 1, pressure gradient = 0.00373106
smoothSolver:  Solving for omega, Initial residual = 1.85056e-05, Final residual = 9.61985e-06, No Iterations 1
smoothSolver:  Solving for k, Initial residual = 0.0060341, Final residual = 0.000444752, No Iterations 6
ExecutionTime = 0.184465 s  ClockTime = 1 s

Time = 81s

smoothSolver:  Solving for Ux, Initial residual = 0.00304707, Final residual = 0.000299812, No Iterations 5
smoothSolver:  Solving for Uy, Initial residual = 0.0489717, Final residual = 0.0032634, No Iterations 4
Pressure gradient source: uncorrected Ubar = 0.999988, pressure gradient = 0.00408608
GAMG:  Solving for p, Initial residual = 0.0175638, Final residual = 0.0010497, No Iterations 4
time step continuity errors : sum local = 3.19068e-07, global = -5.84136e-18, cumulative = -3.62506e-17
Pressure gradient source: uncorrected Ubar = 1, pressure gradient = 0.00373333
smoothSolver:  Solving for omega, Initial residual = 1.86438e-05, Final residual = 6.11399e-06, No Iterations 2
smoothSolver:  Solving for k, Initial residual = 0.00604676, Final residual = 0.000540506, No Iterations 5
ExecutionTime = 0.186503 s  ClockTime = 1 s

Time = 82s

smoothSolver:  Solving for Ux, Initial residual = 0.00299185, Final residual = 0.000293957, No Iterations 5
smoothSolver:  Solving for Uy, Initial residual = 0.0697545, Final residual = 0.00489971, No Iterations 4
Pressure gradient source: uncorrected Ubar = 0.999986, pressure gradient = 0.00413127
GAMG:  Solving for p, Initial residual = 0.02454, Final residual = 0.00225395, No Iterations 6
time step continuity errors : sum local = 6.79978e-07, global = 5.8406e-18, cumulative = -3.04101e-17
Pressure gradient source: uncorrected Ubar = 1, pressure gradient = 0.0037424
smoothSolver:  Solving for omega, Initial residual = 1.74808e-05, Final residual = 9.69598e-06, No Iterations 1
smoothSolver:  Solving for k, Initial residual = 0.00614746, Final residual = 0.000588974, No Iterations 5
ExecutionTime = 0.188531 s  ClockTime = 1 s

Time = 83s

smoothSolver:  Solving for Ux, Initial residual = 0.00293373, Final residual = 0.000287337, No Iterations 5
smoothSolver:  Solving for Uy, Initial residual = 0.0840915, Final residual = 0.00583652, No Iterations 4
Pressure gradient source: uncorrected Ubar = 0.999987, pressure gradient = 0.00411977
GAMG:  Solving for p, Initial residual = 0.0317836, Final residual = 0.00249602, No Iterations 11
time step continuity errors : sum local = 8.0524e-07, global = 1.97709e-18, cumulative = -2.8433e-17
Pressure gradient source: uncorrected Ubar = 1, pressure gradient = 0.00374941
smoothSolver:  Solving for omega, Initial residual = 1.80705e-05, Final residual = 9.91825e-06, No Iterations 1
smoothSolver:  Solving for k, Initial residual = 0.00640717, Final residual = 0.000605441, No Iterations 5
ExecutionTime = 0.190836 s  ClockTime = 1 s

Time = 84s

smoothSolver:  Solving for Ux, Initial residual = 0.00287572, Final residual = 0.000281021, No Iterations 5
smoothSolver:  Solving for Uy, Initial residual = 0.0707182, Final residual = 0.00500722, No Iterations 4
Pressure gradient source: uncorrected Ubar = 0.999986, pressure gradient = 0.00413913
GAMG:  Solving for p, Initial residual = 0.0264082, Final residual = 0.00198353, No Iterations 15
time step continuity errors : sum local = 5.44682e-07, global = -7.73853e-18, cumulative = -3.61715e-17
Pressure gradient source: uncorrected Ubar = 1, pressure gradient = 0.00375921
smoothSolver:  Solving for omega, Initial residual = 1.80869e-05, Final residual = 6.40839e-06, No Iterations 2
smoothSolver:  Solving for k, Initial residual = 0.00647777, Final residual = 0.000572758, No Iterations 5
ExecutionTime = 0.193201 s  ClockTime = 1 s

Time = 85s

smoothSolver:  Solving for Ux, Initial residual = 0.00283037, Final residual = 0.000276355, No Iterations 5
smoothSolver:  Solving for Uy, Initial residual = 0.0328259, Final residual = 0.0019662, No Iterations 4
Pressure gradient source: uncorrected Ubar = 0.999986, pressure gradient = 0.00416649
GAMG:  Solving for p, Initial residual = 0.0236537, Final residual = 0.00207366, No Iterations 12
time step continuity errors : sum local = 5.83186e-07, global = 7.65957e-18, cumulative = -2.85119e-17
Pressure gradient source: uncorrected Ubar = 1, pressure gradient = 0.00377209
smoothSolver:  Solving for omega, Initial residual = 1.68692e-05, Final residual = 9.03333e-06, No Iterations 1
smoothSolver:  Solving for k, Initial residual = 0.00671724, Final residual = 0.00050135, No Iterations 6
ExecutionTime = 0.195476 s  ClockTime = 1 s

Time = 86s

smoothSolver:  Solving for Ux, Initial residual = 0.00276117, Final residual = 0.00026883, No Iterations 5
smoothSolver:  Solving for Uy, Initial residual = 0.0548535, Final residual = 0.00377762, No Iterations 4
Pressure gradient source: uncorrected Ubar = 0.999988, pressure gradient = 0.00412196
GAMG:  Solving for p, Initial residual = 0.0264169, Final residual = 0.00228986, No Iterations 7
time step continuity errors : sum local = 4.58302e-07, global = -3.96783e-18, cumulative = -3.24797e-17
Pressure gradient source: uncorrected Ubar = 1, pressure gradient = 0.00377751
smoothSolver:  Solving for omega, Initial residual = 1.72394e-05, Final residual = 9.25291e-06, No Iterations 1
smoothSolver:  Solving for k, Initial residual = 0.0068546, Final residual = 0.000444503, No Iterations 6
ExecutionTime = 0.197745 s  ClockTime = 1 s

Time = 87s

smoothSolver:  Solving for Ux, Initial residual = 0.00270013, Final residual = 0.000262296, No Iterations 5
smoothSolver:  Solving for Uy, Initial residual = 0.0660429, Final residual = 0.00387985, No Iterations 4
Pressure gradient source: uncorrected Ubar = 0.999987, pressure gradient = 0.0041509
GAMG:  Solving for p, Initial residual = 0.033923, Final residual = 0.00324871, No Iterations 6
time step continuity errors : sum local = 6.69175e-07, global = -2.04618e-18, cumulative = -3.45259e-17
Pressure gradient source: uncorrected Ubar = 1, pressure gradient = 0.00378736
smoothSolver:  Solving for omega, Initial residual = 1.74543e-05, Final residual = 9.91688e-06, No Iterations 1
smoothSolver:  Solving for k, Initial residual = 0.00698556, Final residual = 0.00069495, No Iterations 5
ExecutionTime = 0.199926 s  ClockTime = 1 s

Time = 88s

smoothSolver:  Solving for Ux, Initial residual = 0.00264113, Final residual = 0.000255978, No Iterations 5
smoothSolver:  Solving for Uy, Initial residual = 0.0611798, Final residual = 0.00377521, No Iterations 4
Pressure gradient source: uncorrected Ubar = 0.999987, pressure gradient = 0.00415459
GAMG:  Solving for p, Initial residual = 0.029572, Final residual = 0.00213497, No Iterations 13
time step continuity errors : sum local = 4.26547e-07, global = 3.36781e-18, cumulative = -3.11581e-17
Pressure gradient source: uncorrected Ubar = 1, pressure gradient = 0.00379714
smoothSolver:  Solving for omega, Initial residual = 1.72764e-05, Final residual = 9.67039e-06, No Iterations 1
smoothSolver:  Solving for k, Initial residual = 0.00708018, Final residual = 0.000634937, No Iterations 5
ExecutionTime = 0.202231 s  ClockTime = 1 s

Time = 89s

smoothSolver:  Solving for Ux, Initial residual = 0.00257963, Final residual = 0.00024986, No Iterations 5
smoothSolver:  Solving for Uy, Initial residual = 0.0539733, Final residual = 0.00340155, No Iterations 4
[...]
Pressure gradient source: uncorrected Ubar = 1, pressure gradient = 0.00391261
smoothSolver:  Solving for omega, Initial residual = 5.93498e-06, Final residual = 5.93498e-06, No Iterations 0
smoothSolver:  Solving for k, Initial residual = 7.28784e-05, Final residual = 7.10387e-06, No Iterations 5
ExecutionTime = 0.859422 s  ClockTime = 1 s

Time = 402s

smoothSolver:  Solving for Ux, Initial residual = 1.25816e-05, Final residual = 7.77714e-06, No Iterations 1
smoothSolver:  Solving for Uy, Initial residual = 0.029197, Final residual = 0.00242776, No Iterations 3
Pressure gradient source: uncorrected Ubar = 1, pressure gradient = 0.00391218
GAMG:  Solving for p, Initial residual = 0.00364756, Final residual = 0.00026362, No Iterations 9
time step continuity errors : sum local = 5.56972e-09, global = 1.05053e-18, cumulative = -9.2359e-17
Pressure gradient source: uncorrected Ubar = 1, pressure gradient = 0.00391236
smoothSolver:  Solving for omega, Initial residual = 5.92927e-06, Final residual = 5.92927e-06, No Iterations 0
smoothSolver:  Solving for k, Initial residual = 7.07228e-05, Final residual = 9.95824e-06, No Iterations 4
ExecutionTime = 0.861546 s  ClockTime = 1 s

Time = 403s

smoothSolver:  Solving for Ux, Initial residual = 1.29434e-05, Final residual = 8.00584e-06, No Iterations 1
smoothSolver:  Solving for Uy, Initial residual = 0.0210579, Final residual = 0.00167345, No Iterations 3
Pressure gradient source: uncorrected Ubar = 1, pressure gradient = 0.00391202
GAMG:  Solving for p, Initial residual = 0.00330146, Final residual = 0.000283966, No Iterations 7
time step continuity errors : sum local = 5.84924e-09, global = -8.85078e-18, cumulative = -1.0121e-16
Pressure gradient source: uncorrected Ubar = 1, pressure gradient = 0.00391215
smoothSolver:  Solving for omega, Initial residual = 5.92416e-06, Final residual = 5.92416e-06, No Iterations 0
smoothSolver:  Solving for k, Initial residual = 7.24613e-05, Final residual = 7.48561e-06, No Iterations 5
ExecutionTime = 0.863587 s  ClockTime = 1 s

Time = 404s

smoothSolver:  Solving for Ux, Initial residual = 1.33289e-05, Final residual = 8.2362e-06, No Iterations 1
smoothSolver:  Solving for Uy, Initial residual = 0.0140092, Final residual = 0.00100716, No Iterations 3
Pressure gradient source: uncorrected Ubar = 1, pressure gradient = 0.00391185
GAMG:  Solving for p, Initial residual = 0.00337929, Final residual = 0.000232838, No Iterations 7
time step continuity errors : sum local = 5.07258e-09, global = 6.43238e-19, cumulative = -1.00567e-16
Pressure gradient source: uncorrected Ubar = 1, pressure gradient = 0.00391195
smoothSolver:  Solving for omega, Initial residual = 5.91919e-06, Final residual = 5.91919e-06, No Iterations 0
smoothSolver:  Solving for k, Initial residual = 6.93971e-05, Final residual = 6.43425e-06, No Iterations 5
ExecutionTime = 0.865745 s  ClockTime = 1 s

Time = 405s

smoothSolver:  Solving for Ux, Initial residual = 1.37119e-05, Final residual = 8.46977e-06, No Iterations 1
smoothSolver:  Solving for Uy, Initial residual = 0.0204848, Final residual = 0.00169462, No Iterations 3
Pressure gradient source: uncorrected Ubar = 1, pressure gradient = 0.00391168
GAMG:  Solving for p, Initial residual = 0.003153, Final residual = 0.00026859, No Iterations 4
time step continuity errors : sum local = 5.65902e-09, global = -3.7348e-20, cumulative = -1.00604e-16
Pressure gradient source: uncorrected Ubar = 1, pressure gradient = 0.00391177
smoothSolver:  Solving for omega, Initial residual = 5.91473e-06, Final residual = 5.91473e-06, No Iterations 0
smoothSolver:  Solving for k, Initial residual = 6.72334e-05, Final residual = 6.90619e-06, No Iterations 5
ExecutionTime = 0.867775 s  ClockTime = 1 s

Time = 406s

smoothSolver:  Solving for Ux, Initial residual = 1.41036e-05, Final residual = 8.71973e-06, No Iterations 1
smoothSolver:  Solving for Uy, Initial residual = 0.0197834, Final residual = 0.00141465, No Iterations 3
Pressure gradient source: uncorrected Ubar = 1, pressure gradient = 0.00391139
GAMG:  Solving for p, Initial residual = 0.0029843, Final residual = 0.000255833, No Iterations 5
time step continuity errors : sum local = 5.50243e-09, global = 6.34268e-18, cumulative = -9.42612e-17
Pressure gradient source: uncorrected Ubar = 1, pressure gradient = 0.00391156
smoothSolver:  Solving for omega, Initial residual = 5.91048e-06, Final residual = 5.91048e-06, No Iterations 0
smoothSolver:  Solving for k, Initial residual = 6.48364e-05, Final residual = 8.65429e-06, No Iterations 4
ExecutionTime = 0.869722 s  ClockTime = 1 s

Time = 407s

smoothSolver:  Solving for Ux, Initial residual = 1.44183e-05, Final residual = 8.91511e-06, No Iterations 1
smoothSolver:  Solving for Uy, Initial residual = 0.0229047, Final residual = 0.00179945, No Iterations 3
Pressure gradient source: uncorrected Ubar = 1, pressure gradient = 0.00391126
GAMG:  Solving for p, Initial residual = 0.00357504, Final residual = 0.000249628, No Iterations 7
time step continuity errors : sum local = 5.20024e-09, global = -2.94801e-18, cumulative = -9.72092e-17
Pressure gradient source: uncorrected Ubar = 1, pressure gradient = 0.00391137
smoothSolver:  Solving for omega, Initial residual = 5.90658e-06, Final residual = 5.90658e-06, No Iterations 0
smoothSolver:  Solving for k, Initial residual = 6.36348e-05, Final residual = 8.41391e-06, No Iterations 4
ExecutionTime = 0.871721 s  ClockTime = 1 s

Time = 408s

smoothSolver:  Solving for Ux, Initial residual = 1.4726e-05, Final residual = 9.10936e-06, No Iterations 1
smoothSolver:  Solving for Uy, Initial residual = 0.020607, Final residual = 0.00162058, No Iterations 3
Pressure gradient source: uncorrected Ubar = 1, pressure gradient = 0.00391109
GAMG:  Solving for p, Initial residual = 0.00247528, Final residual = 0.000182224, No Iterations 7
time step continuity errors : sum local = 4.19853e-09, global = -4.85382e-19, cumulative = -9.76946e-17
Pressure gradient source: uncorrected Ubar = 1, pressure gradient = 0.00391119
smoothSolver:  Solving for omega, Initial residual = 5.90274e-06, Final residual = 5.90274e-06, No Iterations 0
smoothSolver:  Solving for k, Initial residual = 6.40258e-05, Final residual = 6.5567e-06, No Iterations 5
ExecutionTime = 0.873706 s  ClockTime = 1 s

Time = 409s

smoothSolver:  Solving for Ux, Initial residual = 1.50642e-05, Final residual = 9.31742e-06, No Iterations 1
smoothSolver:  Solving for Uy, Initial residual = 0.0134617, Final residual = 0.00113331, No Iterations 3
Pressure gradient source: uncorrected Ubar = 1, pressure gradient = 0.00391094
GAMG:  Solving for p, Initial residual = 0.00286913, Final residual = 0.000231855, No Iterations 4
time step continuity errors : sum local = 4.83995e-09, global = -2.72818e-18, cumulative = -1.00423e-16
Pressure gradient source: uncorrected Ubar = 1, pressure gradient = 0.00391103
smoothSolver:  Solving for omega, Initial residual = 5.89927e-06, Final residual = 5.89927e-06, No Iterations 0
smoothSolver:  Solving for k, Initial residual = 6.30686e-05, Final residual = 7.05152e-06, No Iterations 5
ExecutionTime = 0.875677 s  ClockTime = 1 s

Time = 410s

smoothSolver:  Solving for Ux, Initial residual = 1.54332e-05, Final residual = 9.54535e-06, No Iterations 1
smoothSolver:  Solving for Uy, Initial residual = 0.0176843, Final residual = 0.00144292, No Iterations 3
Pressure gradient source: uncorrected Ubar = 1, pressure gradient = 0.00391073
GAMG:  Solving for p, Initial residual = 0.00223613, Final residual = 0.000218595, No Iterations 3
time step continuity errors : sum local = 4.5534e-09, global = -4.24781e-18, cumulative = -1.04671e-16
Pressure gradient source: uncorrected Ubar = 1, pressure gradient = 0.00391085
smoothSolver:  Solving for omega, Initial residual = 5.89598e-06, Final residual = 5.89598e-06, No Iterations 0
smoothSolver:  Solving for k, Initial residual = 5.88482e-05, Final residual = 8.49606e-06, No Iterations 4
ExecutionTime = 0.877559 s  ClockTime = 1 s

Time = 411s

smoothSolver:  Solving for Ux, Initial residual = 1.57439e-05, Final residual = 9.73918e-06, No Iterations 1
smoothSolver:  Solving for Uy, Initial residual = 0.0203577, Final residual = 0.0014288, No Iterations 3
Pressure gradient source: uncorrected Ubar = 1, pressure gradient = 0.00391056
GAMG:  Solving for p, Initial residual = 0.00391338, Final residual = 0.000258038, No Iterations 4
time step continuity errors : sum local = 5.17451e-09, global = -2.97526e-18, cumulative = -1.07646e-16
Pressure gradient source: uncorrected Ubar = 1, pressure gradient = 0.00391068
smoothSolver:  Solving for omega, Initial residual = 5.89281e-06, Final residual = 5.89281e-06, No Iterations 0
smoothSolver:  Solving for k, Initial residual = 5.67478e-05, Final residual = 6.65144e-06, No Iterations 4
ExecutionTime = 0.879577 s  ClockTime = 1 s

Time = 412s

smoothSolver:  Solving for Ux, Initial residual = 1.59841e-05, Final residual = 9.89529e-06, No Iterations 1
smoothSolver:  Solving for Uy, Initial residual = 0.0235369, Final residual = 0.00165923, No Iterations 3
Pressure gradient source: uncorrected Ubar = 1, pressure gradient = 0.00391042
GAMG:  Solving for p, Initial residual = 0.0033091, Final residual = 0.0002403, No Iterations 4
time step continuity errors : sum local = 5.03946e-09, global = 5.59112e-18, cumulative = -1.02055e-16
Pressure gradient source: uncorrected Ubar = 1, pressure gradient = 0.00391052
smoothSolver:  Solving for omega, Initial residual = 5.88961e-06, Final residual = 5.88961e-06, No Iterations 0
smoothSolver:  Solving for k, Initial residual = 5.57643e-05, Final residual = 7.17641e-06, No Iterations 4
ExecutionTime = 0.88158 s  ClockTime = 1 s

Time = 413s

smoothSolver:  Solving for Ux, Initial residual = 1.62604e-05, Final residual = 6.57119e-06, No Iterations 2
smoothSolver:  Solving for Uy, Initial residual = 0.0153157, Final residual = 0.00123905, No Iterations 3
Pressure gradient source: uncorrected Ubar = 1, pressure gradient = 0.00391134
GAMG:  Solving for p, Initial residual = 0.00338898, Final residual = 0.000321862, No Iterations 4
time step continuity errors : sum local = 6.54893e-09, global = 2.59282e-18, cumulative = -9.94619e-17
Pressure gradient source: uncorrected Ubar = 1, pressure gradient = 0.00391076
smoothSolver:  Solving for omega, Initial residual = 5.88431e-06, Final residual = 5.88431e-06, No Iterations 0
smoothSolver:  Solving for k, Initial residual = 5.64035e-05, Final residual = 9.97385e-06, No Iterations 4
ExecutionTime = 0.883591 s  ClockTime = 1 s

Time = 414s

smoothSolver:  Solving for Ux, Initial residual = 1.65418e-05, Final residual = 6.64818e-06, No Iterations 2
smoothSolver:  Solving for Uy, Initial residual = 0.0210372, Final residual = 0.00154817, No Iterations 3
Pressure gradient source: uncorrected Ubar = 1, pressure gradient = 0.00390998
GAMG:  Solving for p, Initial residual = 0.00432422, Final residual = 0.000390156, No Iterations 7
time step continuity errors : sum local = 7.66773e-09, global = -1.91164e-18, cumulative = -1.01374e-16
Pressure gradient source: uncorrected Ubar = 1, pressure gradient = 0.00391067
smoothSolver:  Solving for omega, Initial residual = 5.87933e-06, Final residual = 5.87933e-06, No Iterations 0
smoothSolver:  Solving for k, Initial residual = 5.3892e-05, Final residual = 8.44862e-06, No Iterations 4
ExecutionTime = 0.88569 s  ClockTime = 1 s

Time = 415s

smoothSolver:  Solving for Ux, Initial residual = 1.67214e-05, Final residual = 6.69669e-06, No Iterations 2
smoothSolver:  Solving for Uy, Initial residual = 0.034725, Final residual = 0.0029431, No Iterations 3
Pressure gradient source: uncorrected Ubar = 1, pressure gradient = 0.00390979
GAMG:  Solving for p, Initial residual = 0.00405643, Final residual = 0.000323223, No Iterations 9
time step continuity errors : sum local = 6.78937e-09, global = -2.20355e-18, cumulative = -1.03577e-16
Pressure gradient source: uncorrected Ubar = 1, pressure gradient = 0.00391057
smoothSolver:  Solving for omega, Initial residual = 5.87488e-06, Final residual = 5.87488e-06, No Iterations 0
smoothSolver:  Solving for k, Initial residual = 5.01169e-05, Final residual = 6.59293e-06, No Iterations 4
ExecutionTime = 0.887809 s  ClockTime = 1 s

Time = 416s

smoothSolver:  Solving for Ux, Initial residual = 1.68745e-05, Final residual = 6.75287e-06, No Iterations 2
smoothSolver:  Solving for Uy, Initial residual = 0.0448465, Final residual = 0.00377677, No Iterations 3
Pressure gradient source: uncorrected Ubar = 1, pressure gradient = 0.00390953
GAMG:  Solving for p, Initial residual = 0.00328221, Final residual = 0.00026861, No Iterations 11
time step continuity errors : sum local = 5.75206e-09, global = 1.95593e-18, cumulative = -1.01621e-16
Pressure gradient source: uncorrected Ubar = 1, pressure gradient = 0.00391045
smoothSolver:  Solving for omega, Initial residual = 5.87094e-06, Final residual = 5.87094e-06, No Iterations 0
smoothSolver:  Solving for k, Initial residual = 4.84239e-05, Final residual = 6.56836e-06, No Iterations 4
ExecutionTime = 0.889902 s  ClockTime = 1 s

Time = 417s

smoothSolver:  Solving for Ux, Initial residual = 1.70432e-05, Final residual = 6.80966e-06, No Iterations 2
smoothSolver:  Solving for Uy, Initial residual = 0.0316132, Final residual = 0.0028947, No Iterations 3
Pressure gradient source: uncorrected Ubar = 1, pressure gradient = 0.00390935
GAMG:  Solving for p, Initial residual = 0.00323319, Final residual = 0.000318685, No Iterations 11
time step continuity errors : sum local = 6.52645e-09, global = 7.58769e-18, cumulative = -9.40335e-17
Pressure gradient source: uncorrected Ubar = 1, pressure gradient = 0.00391031
smoothSolver:  Solving for omega, Initial residual = 5.86724e-06, Final residual = 5.86724e-06, No Iterations 0
smoothSolver:  Solving for k, Initial residual = 4.73033e-05, Final residual = 7.17739e-06, No Iterations 4
ExecutionTime = 0.892 s  ClockTime = 1 s

Time = 418s

smoothSolver:  Solving for Ux, Initial residual = 1.72054e-05, Final residual = 6.86979e-06, No Iterations 2
smoothSolver:  Solving for Uy, Initial residual = 0.0259239, Final residual = 0.00243432, No Iterations 3
Pressure gradient source: uncorrected Ubar = 1, pressure gradient = 0.0039092
GAMG:  Solving for p, Initial residual = 0.00307692, Final residual = 0.000294131, No Iterations 8
time step continuity errors : sum local = 6.31159e-09, global = 5.40028e-18, cumulative = -8.86332e-17
Pressure gradient source: uncorrected Ubar = 1, pressure gradient = 0.00391018
smoothSolver:  Solving for omega, Initial residual = 5.86386e-06, Final residual = 5.86386e-06, No Iterations 0
smoothSolver:  Solving for k, Initial residual = 4.64536e-05, Final residual = 6.96625e-06, No Iterations 4
ExecutionTime = 0.894014 s  ClockTime = 1 s

Time = 419s

smoothSolver:  Solving for Ux, Initial residual = 1.73068e-05, Final residual = 6.89707e-06, No Iterations 2
smoothSolver:  Solving for Uy, Initial residual = 0.0200404, Final residual = 0.00196008, No Iterations 3
Pressure gradient source: uncorrected Ubar = 1, pressure gradient = 0.00390917
GAMG:  Solving for p, Initial residual = 0.00331195, Final residual = 0.000322234, No Iterations 7
time step continuity errors : sum local = 6.70877e-09, global = -1.32495e-18, cumulative = -8.99582e-17
Pressure gradient source: uncorrected Ubar = 1, pressure gradient = 0.00391007
smoothSolver:  Solving for omega, Initial residual = 5.86058e-06, Final residual = 5.86058e-06, No Iterations 0
smoothSolver:  Solving for k, Initial residual = 4.48966e-05, Final residual = 7.05883e-06, No Iterations 4
ExecutionTime = 0.896134 s  ClockTime = 1 s

Time = 420s

smoothSolver:  Solving for Ux, Initial residual = 1.73963e-05, Final residual = 6.92228e-06, No Iterations 2
smoothSolver:  Solving for Uy, Initial residual = 0.0170575, Final residual = 0.0008138, No Iterations 4
Pressure gradient source: uncorrected Ubar = 1, pressure gradient = 0.00390898
GAMG:  Solving for p, Initial residual = 0.00203881, Final residual = 0.000195673, No Iterations 10
time step continuity errors : sum local = 4.28722e-09, global = -9.62609e-18, cumulative = -9.95842e-17
Pressure gradient source: uncorrected Ubar = 1, pressure gradient = 0.00390996
smoothSolver:  Solving for omega, Initial residual = 5.8575e-06, Final residual = 5.8575e-06, No Iterations 0
smoothSolver:  Solving for k, Initial residual = 4.11176e-05, Final residual = 9.40975e-06, No Iterations 3
ExecutionTime = 0.898334 s  ClockTime = 1 s

Time = 421s

smoothSolver:  Solving for Ux, Initial residual = 1.74543e-05, Final residual = 6.94412e-06, No Iterations 2
smoothSolver:  Solving for Uy, Initial residual = 0.0166816, Final residual = 0.00139134, No Iterations 3
Pressure gradient source: uncorrected Ubar = 1, pressure gradient = 0.00390883
GAMG:  Solving for p, Initial residual = 0.00274947, Final residual = 0.000242335, No Iterations 7
time step continuity errors : sum local = 5.48498e-09, global = -9.59664e-18, cumulative = -1.09181e-16
Pressure gradient source: uncorrected Ubar = 1, pressure gradient = 0.00390983
smoothSolver:  Solving for omega, Initial residual = 5.85453e-06, Final residual = 5.85453e-06, No Iterations 0
smoothSolver:  Solving for k, Initial residual = 3.93297e-05, Final residual = 8.36971e-06, No Iterations 3
ExecutionTime = 0.90045 s  ClockTime = 1 s

Time = 422s

smoothSolver:  Solving for Ux, Initial residual = 1.75066e-05, Final residual = 6.96249e-06, No Iterations 2
smoothSolver:  Solving for Uy, Initial residual = 0.0174002, Final residual = 0.00131234, No Iterations 3
Pressure gradient source: uncorrected Ubar = 1, pressure gradient = 0.0039087
GAMG:  Solving for p, Initial residual = 0.00191738, Final residual = 0.000156331, No Iterations 11
time step continuity errors : sum local = 3.35511e-09, global = -4.30727e-18, cumulative = -1.13488e-16
Pressure gradient source: uncorrected Ubar = 1, pressure gradient = 0.00390971
smoothSolver:  Solving for omega, Initial residual = 5.85231e-06, Final residual = 5.85231e-06, No Iterations 0
smoothSolver:  Solving for k, Initial residual = 3.79777e-05, Final residual = 8.10888e-06, No Iterations 3
ExecutionTime = 0.902649 s  ClockTime = 1 s

Time = 423s

smoothSolver:  Solving for Ux, Initial residual = 1.75301e-05, Final residual = 6.97163e-06, No Iterations 2
smoothSolver:  Solving for Uy, Initial residual = 0.0116203, Final residual = 0.000828905, No Iterations 3
Pressure gradient source: uncorrected Ubar = 1, pressure gradient = 0.00390861
GAMG:  Solving for p, Initial residual = 0.00168379, Final residual = 0.000145413, No Iterations 6
time step continuity errors : sum local = 3.30665e-09, global = -5.61929e-19, cumulative = -1.1405e-16
Pressure gradient source: uncorrected Ubar = 1, pressure gradient = 0.0039096
smoothSolver:  Solving for omega, Initial residual = 5.85019e-06, Final residual = 5.85019e-06, No Iterations 0
smoothSolver:  Solving for k, Initial residual = 3.74828e-05, Final residual = 8.50376e-06, No Iterations 3
ExecutionTime = 0.904629 s  ClockTime = 1 s

Time = 424s

smoothSolver:  Solving for Ux, Initial residual = 1.75446e-05, Final residual = 6.96977e-06, No Iterations 2
smoothSolver:  Solving for Uy, Initial residual = 0.00928413, Final residual = 0.000710373, No Iterations 3
Pressure gradient source: uncorrected Ubar = 1, pressure gradient = 0.00390855
GAMG:  Solving for p, Initial residual = 0.0017912, Final residual = 0.000177208, No Iterations 4
time step continuity errors : sum local = 3.56381e-09, global = -5.94374e-18, cumulative = -1.19994e-16
Pressure gradient source: uncorrected Ubar = 1, pressure gradient = 0.0039095
smoothSolver:  Solving for omega, Initial residual = 5.84794e-06, Final residual = 5.84794e-06, No Iterations 0
smoothSolver:  Solving for k, Initial residual = 3.56016e-05, Final residual = 8.61426e-06, No Iterations 3
ExecutionTime = 0.906532 s  ClockTime = 1 s


SIMPLE solution converged in 424 iterations

End

