/*---------------------------------------------------------------------------*\
  =========                 |
  \\      /  F ield         | OpenFOAM: The Open Source CFD Toolbox
   \\    /   O peration     | Website:  https://openfoam.org
    \\  /    A nd           | Version:  10
     \\/     M anipulation  |
\*---------------------------------------------------------------------------*/
Build  : 10-e450dce21ea5
Exec   : blockMesh
Date   : Feb 20 2023
Time   : 14:18:15
Host   : "w530-R9YK46P"
PID    : 19071
I/O    : uncollated
Case   : /home/jdmezazeron/gitDanielMezaZ/turbulenceVisualized/Data/SimulationFiles/K39_Re8256
nProcs : 1
sigFpe : Enabling floating point exception trapping (FOAM_SIGFPE).
fileModificationChecking : Monitoring run-time modified files using timeStampMaster (fileModificationSkew 10)
allowSystemOperations : Allowing user-supplied system call operations

// * * * * * * * * * * * * * * * * * * * * * * * * * * * * * * * * * * * * * //
Create time

Deleting polyMesh directory
    "/home/jdmezazeron/gitDanielMezaZ/turbulenceVisualized/Data/SimulationFiles/K39_Re8256/constant/polyMesh"
Reading "blockMeshDict"

Creating block mesh from
    "system/blockMeshDict"
Creating block edges
No non-planar block faces defined
Creating topology blocks
Creating topology patches

Creating block mesh topology

Check topology

	Basic statistics
		Number of internal faces : 0
		Number of boundary faces : 6
		Number of defined boundary faces : 6
		Number of undefined boundary faces : 0
	Checking patch -> block consistency

Creating block offsets
Creating merge list .

Creating polyMesh from blockMesh
Creating patches
Creating cells
Creating points with scale 1
    Block 0 cell size :
        i : 0.5
        j : 0.00461374 .. 0.018455
        k : 2

Detected cyclic patches; ordering boundary faces

Writing polyMesh
----------------
Mesh Information
----------------
  boundingBox: (-1 0 -1) (1 1 1)
  nPoints: 1010
  nCells: 400
  nFaces: 1704
  nInternalFaces: 696
----------------
Patches
----------------
  patch 0 (start: 696 size: 100) name: inlet
  patch 1 (start: 796 size: 100) name: outlet
  patch 2 (start: 896 size: 4) name: fixedWalls-bottom
  patch 3 (start: 900 size: 4) name: fixedWalls-top
  patch 4 (start: 904 size: 800) name: frontAndBack

End

/*---------------------------------------------------------------------------*\
  =========                 |
  \\      /  F ield         | OpenFOAM: The Open Source CFD Toolbox
   \\    /   O peration     | Website:  https://openfoam.org
    \\  /    A nd           | Version:  10
     \\/     M anipulation  |
\*---------------------------------------------------------------------------*/
Build  : 10-e450dce21ea5
Exec   : simpleFoam
Date   : Feb 20 2023
Time   : 14:18:15
Host   : "w530-R9YK46P"
PID    : 19072
I/O    : uncollated
Case   : /home/jdmezazeron/gitDanielMezaZ/turbulenceVisualized/Data/SimulationFiles/K39_Re8256
nProcs : 1
sigFpe : Enabling floating point exception trapping (FOAM_SIGFPE).
fileModificationChecking : Monitoring run-time modified files using timeStampMaster (fileModificationSkew 10)
allowSystemOperations : Allowing user-supplied system call operations

// * * * * * * * * * * * * * * * * * * * * * * * * * * * * * * * * * * * * * //
Create time

Create mesh for time = 0


SIMPLE: Convergence criteria found
        U: tolerance 0.0001
        p: tolerance 0.01
        omega: tolerance 0.0001

Reading field p

Reading field U

Reading/calculating face flux field phi

Selecting viscosity model Newtonian
Selecting turbulence model type RAS
Selecting RAS turbulence model kOmegaSST
Selecting patchDistMethod meshWave
RAS
{
    RASModel        kOmegaSST;
    turbulence      on;
    printCoeffs     on;
    alphaK1         0.85;
    alphaK2         1;
    alphaOmega1     0.5;
    alphaOmega2     0.856;
    gamma1          0.555556;
    gamma2          0.44;
    beta1           0.075;
    beta2           0.0828;
    betaStar        0.09;
    a1              0.31;
    b1              1;
    c1              10;
    F3              false;
}

No MRF models present

--> FOAM Warning : Creating fvModels from "system/fvOptions" rather than constant/fvModels
No fvModels present
--> FOAM Warning : Creating fvConstraints from "system/fvOptions"

Selecting finite volume constraint type meanVelocityForce
    Name: momentumSource
    - selecting all cells
    - selected 400 cell(s) with volume 4
    Initial pressure gradient = 0


Starting time loop

turbulenceFields stressComponents: storing fields:
    R

Time = 1s

smoothSolver:  Solving for Ux, Initial residual = 0, Final residual = 0, No Iterations 0
smoothSolver:  Solving for Uy, Initial residual = 0, Final residual = 0, No Iterations 0
Pressure gradient source: uncorrected Ubar = 0, pressure gradient = 1049.78
GAMG:  Solving for p, Initial residual = 0.999996, Final residual = 0.0647317, No Iterations 3
time step continuity errors : sum local = 9.03225e-17, global = 5.70968e-18, cumulative = 5.70968e-18
Pressure gradient source: uncorrected Ubar = 0.884653, pressure gradient = 121.089
smoothSolver:  Solving for omega, Initial residual = 0.262541, Final residual = 0.0158626, No Iterations 3
smoothSolver:  Solving for k, Initial residual = 1, Final residual = 0.0687678, No Iterations 5
ExecutionTime = 0.014146 s  ClockTime = 0 s

Time = 2s

smoothSolver:  Solving for Ux, Initial residual = 0.993986, Final residual = 0.0978926, No Iterations 6
smoothSolver:  Solving for Uy, Initial residual = 1, Final residual = 0.0726252, No Iterations 5
Pressure gradient source: uncorrected Ubar = 71.9163, pressure gradient = -897.387
GAMG:  Solving for p, Initial residual = 1, Final residual = 0.0972469, No Iterations 15
time step continuity errors : sum local = 0.0640476, global = -5.04152e-18, cumulative = 6.68156e-19
Pressure gradient source: uncorrected Ubar = 10.262, pressure gradient = -11.9296
smoothSolver:  Solving for omega, Initial residual = 0.119176, Final residual = 0.00718698, No Iterations 1
smoothSolver:  Solving for k, Initial residual = 0.704596, Final residual = 0.0571629, No Iterations 1
ExecutionTime = 0.017214 s  ClockTime = 0 s

Time = 3s

smoothSolver:  Solving for Ux, Initial residual = 0.309332, Final residual = 0.0234113, No Iterations 6
smoothSolver:  Solving for Uy, Initial residual = 0.661019, Final residual = 0.0201785, No Iterations 2
Pressure gradient source: uncorrected Ubar = -1.58129, pressure gradient = 91.361
GAMG:  Solving for p, Initial residual = 0.175579, Final residual = 0.0173759, No Iterations 8
time step continuity errors : sum local = 0.0283828, global = -5.20417e-17, cumulative = -5.13735e-17
Pressure gradient source: uncorrected Ubar = 0.687642, pressure gradient = 0.569446
smoothSolver:  Solving for omega, Initial residual = 0.215955, Final residual = 0.00601345, No Iterations 1
smoothSolver:  Solving for k, Initial residual = 0.430363, Final residual = 0.0126503, No Iterations 2
ExecutionTime = 0.019858 s  ClockTime = 0 s

Time = 4s

smoothSolver:  Solving for Ux, Initial residual = 0.0681267, Final residual = 0.00568263, No Iterations 4
smoothSolver:  Solving for Uy, Initial residual = 0.379926, Final residual = 0.0323638, No Iterations 2
Pressure gradient source: uncorrected Ubar = 0.973285, pressure gradient = 1.19903
GAMG:  Solving for p, Initial residual = 0.0850347, Final residual = 0.00800703, No Iterations 7
time step continuity errors : sum local = 0.0296553, global = 3.10387e-17, cumulative = -2.03349e-17
Pressure gradient source: uncorrected Ubar = 0.994745, pressure gradient = 0.693287
smoothSolver:  Solving for omega, Initial residual = 0.0392766, Final residual = 0.00152446, No Iterations 2
smoothSolver:  Solving for k, Initial residual = 0.714793, Final residual = 0.0248675, No Iterations 2
ExecutionTime = 0.022471 s  ClockTime = 0 s

Time = 5s

smoothSolver:  Solving for Ux, Initial residual = 0.0615031, Final residual = 0.00449592, No Iterations 5
smoothSolver:  Solving for Uy, Initial residual = 0.372865, Final residual = 0.0332609, No Iterations 2
Pressure gradient source: uncorrected Ubar = 0.930297, pressure gradient = 2.30706
GAMG:  Solving for p, Initial residual = 0.0812692, Final residual = 0.00734755, No Iterations 7
time step continuity errors : sum local = 0.0251974, global = -1.2055e-17, cumulative = -3.23898e-17
Pressure gradient source: uncorrected Ubar = 0.991719, pressure gradient = 0.88501
smoothSolver:  Solving for omega, Initial residual = 0.0740689, Final residual = 0.00268533, No Iterations 2
smoothSolver:  Solving for k, Initial residual = 0.788436, Final residual = 0.0670811, No Iterations 1
ExecutionTime = 0.02509 s  ClockTime = 0 s

Time = 6s

smoothSolver:  Solving for Ux, Initial residual = 0.0755078, Final residual = 0.00520446, No Iterations 5
smoothSolver:  Solving for Uy, Initial residual = 0.817266, Final residual = 0.0488498, No Iterations 2
Pressure gradient source: uncorrected Ubar = 0.92136, pressure gradient = 2.81562
GAMG:  Solving for p, Initial residual = 0.0793077, Final residual = 0.00656905, No Iterations 11
time step continuity errors : sum local = 0.0186354, global = -7.069e-17, cumulative = -1.0308e-16
Pressure gradient source: uncorrected Ubar = 0.990134, pressure gradient = 1.12721
smoothSolver:  Solving for omega, Initial residual = 0.145448, Final residual = 0.00547855, No Iterations 2
smoothSolver:  Solving for k, Initial residual = 0.530855, Final residual = 0.0481609, No Iterations 1
ExecutionTime = 0.027858 s  ClockTime = 0 s

Time = 7s

smoothSolver:  Solving for Ux, Initial residual = 0.072143, Final residual = 0.0051081, No Iterations 5
smoothSolver:  Solving for Uy, Initial residual = 0.547921, Final residual = 0.0490487, No Iterations 2
Pressure gradient source: uncorrected Ubar = 0.990039, pressure gradient = 1.41995
GAMG:  Solving for p, Initial residual = 0.125799, Final residual = 0.00741396, No Iterations 8
time step continuity errors : sum local = 0.0193471, global = 2.12487e-17, cumulative = -8.18312e-17
Pressure gradient source: uncorrected Ubar = 0.997531, pressure gradient = 1.19977
smoothSolver:  Solving for omega, Initial residual = 0.252227, Final residual = 0.0059123, No Iterations 2
bounding omega, min: -0.490351 max: 3642.47 average: 143.355
smoothSolver:  Solving for k, Initial residual = 0.372812, Final residual = 0.00244753, No Iterations 2
ExecutionTime = 0.030618 s  ClockTime = 0 s

Time = 8s

smoothSolver:  Solving for Ux, Initial residual = 0.0883242, Final residual = 0.00781687, No Iterations 4
smoothSolver:  Solving for Uy, Initial residual = 0.511566, Final residual = 0.03473, No Iterations 2
Pressure gradient source: uncorrected Ubar = 0.923162, pressure gradient = 3.98975
GAMG:  Solving for p, Initial residual = 0.153326, Final residual = 0.0145603, No Iterations 10
time step continuity errors : sum local = 0.0548583, global = 6.9389e-18, cumulative = -7.48923e-17
Pressure gradient source: uncorrected Ubar = 0.989932, pressure gradient = 1.56535
smoothSolver:  Solving for omega, Initial residual = 0.225865, Final residual = 0.00272709, No Iterations 2
smoothSolver:  Solving for k, Initial residual = 0.26542, Final residual = 0.00440942, No Iterations 2
ExecutionTime = 0.033377 s  ClockTime = 0 s

Time = 9s

smoothSolver:  Solving for Ux, Initial residual = 0.103386, Final residual = 0.00658964, No Iterations 4
smoothSolver:  Solving for Uy, Initial residual = 0.63018, Final residual = 0.0530582, No Iterations 2
Pressure gradient source: uncorrected Ubar = 0.940214, pressure gradient = 4.2548
GAMG:  Solving for p, Initial residual = 0.230718, Final residual = 0.017241, No Iterations 8
time step continuity errors : sum local = 0.0726598, global = -2.29851e-17, cumulative = -9.78773e-17
Pressure gradient source: uncorrected Ubar = 0.989906, pressure gradient = 2.01944
smoothSolver:  Solving for omega, Initial residual = 0.224949, Final residual = 0.0049074, No Iterations 2
bounding omega, min: -5.33338 max: 3642.47 average: 132.302
smoothSolver:  Solving for k, Initial residual = 0.241326, Final residual = 0.0121072, No Iterations 2
ExecutionTime = 0.036067 s  ClockTime = 0 s

Time = 10s

smoothSolver:  Solving for Ux, Initial residual = 0.0871332, Final residual = 0.00755229, No Iterations 3
smoothSolver:  Solving for Uy, Initial residual = 0.592067, Final residual = 0.0536449, No Iterations 2
Pressure gradient source: uncorrected Ubar = 0.863448, pressure gradient = 9.28336
GAMG:  Solving for p, Initial residual = 0.391938, Final residual = 0.00911759, No Iterations 5
time step continuity errors : sum local = 0.0302285, global = 1.68268e-16, cumulative = 7.03908e-17
Pressure gradient source: uncorrected Ubar = 0.974421, pressure gradient = 3.38012
smoothSolver:  Solving for omega, Initial residual = 0.168531, Final residual = 0.00405361, No Iterations 2
smoothSolver:  Solving for k, Initial residual = 0.204093, Final residual = 0.0189331, No Iterations 2
ExecutionTime = 0.038676 s  ClockTime = 0 s

Time = 11s

smoothSolver:  Solving for Ux, Initial residual = 0.061928, Final residual = 0.00609717, No Iterations 3
smoothSolver:  Solving for Uy, Initial residual = 0.543051, Final residual = 0.0201128, No Iterations 3
Pressure gradient source: uncorrected Ubar = 0.930546, pressure gradient = 7.72043
GAMG:  Solving for p, Initial residual = 0.295851, Final residual = 0.0205151, No Iterations 8
time step continuity errors : sum local = 0.0907511, global = 1.2078e-16, cumulative = 1.91171e-16
Pressure gradient source: uncorrected Ubar = 0.989516, pressure gradient = 4.03527
smoothSolver:  Solving for omega, Initial residual = 0.154568, Final residual = 0.00593132, No Iterations 2
smoothSolver:  Solving for k, Initial residual = 0.162532, Final residual = 0.00750765, No Iterations 3
ExecutionTime = 0.041336 s  ClockTime = 0 s

Time = 12s

smoothSolver:  Solving for Ux, Initial residual = 0.0393241, Final residual = 0.00271501, No Iterations 4
smoothSolver:  Solving for Uy, Initial residual = 0.480079, Final residual = 0.0171191, No Iterations 3
Pressure gradient source: uncorrected Ubar = 0.90109, pressure gradient = 10.8408
GAMG:  Solving for p, Initial residual = 0.229862, Final residual = 0.0224024, No Iterations 9
time step continuity errors : sum local = 0.102147, global = -3.49249e-17, cumulative = 1.56246e-16
Pressure gradient source: uncorrected Ubar = 0.989374, pressure gradient = 4.76638
smoothSolver:  Solving for omega, Initial residual = 0.132959, Final residual = 0.00699088, No Iterations 2
smoothSolver:  Solving for k, Initial residual = 0.145126, Final residual = 0.00945288, No Iterations 3
ExecutionTime = 0.044025 s  ClockTime = 0 s

Time = 13s

smoothSolver:  Solving for Ux, Initial residual = 0.0270557, Final residual = 0.00211599, No Iterations 4
smoothSolver:  Solving for Uy, Initial residual = 0.492231, Final residual = 0.021397, No Iterations 3
Pressure gradient source: uncorrected Ubar = 0.951885, pressure gradient = 8.5174
GAMG:  Solving for p, Initial residual = 0.18487, Final residual = 0.0115215, No Iterations 8
time step continuity errors : sum local = 0.0848846, global = 3.42608e-17, cumulative = 1.90507e-16
Pressure gradient source: uncorrected Ubar = 0.995795, pressure gradient = 5.09416
smoothSolver:  Solving for omega, Initial residual = 0.124275, Final residual = 0.00710351, No Iterations 2
smoothSolver:  Solving for k, Initial residual = 0.0958876, Final residual = 0.00761769, No Iterations 3
ExecutionTime = 0.046682 s  ClockTime = 0 s

Time = 14s

smoothSolver:  Solving for Ux, Initial residual = 0.0223732, Final residual = 0.00174818, No Iterations 4
smoothSolver:  Solving for Uy, Initial residual = 0.392485, Final residual = 0.0185659, No Iterations 3
Pressure gradient source: uncorrected Ubar = 0.942821, pressure gradient = 10.1815
GAMG:  Solving for p, Initial residual = 0.298925, Final residual = 0.0292666, No Iterations 10
time step continuity errors : sum local = 0.115266, global = 3.70797e-17, cumulative = 2.27587e-16
Pressure gradient source: uncorrected Ubar = 0.990827, pressure gradient = 5.91029
smoothSolver:  Solving for omega, Initial residual = 0.125144, Final residual = 0.00816128, No Iterations 2
smoothSolver:  Solving for k, Initial residual = 0.078413, Final residual = 0.00711913, No Iterations 3
ExecutionTime = 0.049486 s  ClockTime = 0 s

Time = 15s

smoothSolver:  Solving for Ux, Initial residual = 0.0197203, Final residual = 0.00160338, No Iterations 4
smoothSolver:  Solving for Uy, Initial residual = 0.384303, Final residual = 0.0231705, No Iterations 3
Pressure gradient source: uncorrected Ubar = 0.966776, pressure gradient = 9.25833
GAMG:  Solving for p, Initial residual = 0.192395, Final residual = 0.0185032, No Iterations 9
time step continuity errors : sum local = 0.122757, global = -3.14419e-17, cumulative = 1.96145e-16
Pressure gradient source: uncorrected Ubar = 0.99995, pressure gradient = 5.91529
smoothSolver:  Solving for omega, Initial residual = 0.12264, Final residual = 0.00851833, No Iterations 2
smoothSolver:  Solving for k, Initial residual = 0.0694781, Final residual = 0.00639848, No Iterations 3
ExecutionTime = 0.052202 s  ClockTime = 0 s

Time = 16s

smoothSolver:  Solving for Ux, Initial residual = 0.0175708, Final residual = 0.00144133, No Iterations 4
smoothSolver:  Solving for Uy, Initial residual = 0.43243, Final residual = 0.0256515, No Iterations 3
Pressure gradient source: uncorrected Ubar = 0.918046, pressure gradient = 15.7081
GAMG:  Solving for p, Initial residual = 0.385326, Final residual = 0.0315078, No Iterations 8
time step continuity errors : sum local = 0.117812, global = -2.09793e-17, cumulative = 1.75165e-16
Pressure gradient source: uncorrected Ubar = 1.00221, pressure gradient = 5.65095
smoothSolver:  Solving for omega, Initial residual = 0.111001, Final residual = 0.00942669, No Iterations 2
smoothSolver:  Solving for k, Initial residual = 0.0635465, Final residual = 0.00602282, No Iterations 3
ExecutionTime = 0.054841 s  ClockTime = 0 s

Time = 17s

smoothSolver:  Solving for Ux, Initial residual = 0.0159605, Final residual = 0.00131933, No Iterations 4
smoothSolver:  Solving for Uy, Initial residual = 0.411564, Final residual = 0.0204865, No Iterations 3
Pressure gradient source: uncorrected Ubar = 0.912132, pressure gradient = 17.3037
GAMG:  Solving for p, Initial residual = 0.156297, Final residual = 0.013502, No Iterations 11
time step continuity errors : sum local = 0.102943, global = 1.92988e-17, cumulative = 1.94464e-16
Pressure gradient source: uncorrected Ubar = 0.989409, pressure gradient = 7.05549
smoothSolver:  Solving for omega, Initial residual = 0.0988431, Final residual = 0.00823425, No Iterations 2
smoothSolver:  Solving for k, Initial residual = 0.057514, Final residual = 0.00344157, No Iterations 4
ExecutionTime = 0.057674 s  ClockTime = 0 s

Time = 18s

smoothSolver:  Solving for Ux, Initial residual = 0.0145444, Final residual = 0.00136139, No Iterations 4
smoothSolver:  Solving for Uy, Initial residual = 0.352201, Final residual = 0.0246905, No Iterations 3
Pressure gradient source: uncorrected Ubar = 0.991433, pressure gradient = 8.29177
GAMG:  Solving for p, Initial residual = 0.075277, Final residual = 0.00719637, No Iterations 10
time step continuity errors : sum local = 0.121503, global = -1.04029e-16, cumulative = 9.0435e-17
Pressure gradient source: uncorrected Ubar = 0.997321, pressure gradient = 7.44207
smoothSolver:  Solving for omega, Initial residual = 0.0877468, Final residual = 0.0085387, No Iterations 2
smoothSolver:  Solving for k, Initial residual = 0.0522096, Final residual = 0.00364382, No Iterations 4
ExecutionTime = 0.060494 s  ClockTime = 0 s

Time = 19s

smoothSolver:  Solving for Ux, Initial residual = 0.0136275, Final residual = 0.000868983, No Iterations 5
smoothSolver:  Solving for Uy, Initial residual = 0.388348, Final residual = 0.024771, No Iterations 3
Pressure gradient source: uncorrected Ubar = 1.00482, pressure gradient = 6.63391
GAMG:  Solving for p, Initial residual = 0.0917191, Final residual = 0.00725892, No Iterations 8
time step continuity errors : sum local = 0.115441, global = 4.8247e-17, cumulative = 1.38682e-16
Pressure gradient source: uncorrected Ubar = 1.00048, pressure gradient = 7.36119
smoothSolver:  Solving for omega, Initial residual = 0.071557, Final residual = 0.00460893, No Iterations 3
smoothSolver:  Solving for k, Initial residual = 0.0514198, Final residual = 0.00456257, No Iterations 4
ExecutionTime = 0.06316 s  ClockTime = 0 s

Time = 20s

smoothSolver:  Solving for Ux, Initial residual = 0.0124818, Final residual = 0.000849739, No Iterations 5
smoothSolver:  Solving for Uy, Initial residual = 0.260568, Final residual = 0.0196094, No Iterations 3
Pressure gradient source: uncorrected Ubar = 0.99146, pressure gradient = 8.94623
GAMG:  Solving for p, Initial residual = 0.13041, Final residual = 0.0112824, No Iterations 8
time step continuity errors : sum local = 0.105479, global = -2.81214e-19, cumulative = 1.38401e-16
Pressure gradient source: uncorrected Ubar = 0.996949, pressure gradient = 7.92746
smoothSolver:  Solving for omega, Initial residual = 0.0596391, Final residual = 0.00502738, No Iterations 3
smoothSolver:  Solving for k, Initial residual = 0.0485571, Final residual = 0.00467961, No Iterations 4
ExecutionTime = 0.065847 s  ClockTime = 0 s

Time = 21s

smoothSolver:  Solving for Ux, Initial residual = 0.0117139, Final residual = 0.000859917, No Iterations 5
smoothSolver:  Solving for Uy, Initial residual = 0.300092, Final residual = 0.0188825, No Iterations 3
Pressure gradient source: uncorrected Ubar = 1.01284, pressure gradient = 5.3439
GAMG:  Solving for p, Initial residual = 0.167958, Final residual = 0.0159653, No Iterations 10
time step continuity errors : sum local = 0.0813911, global = 9.95298e-17, cumulative = 2.37931e-16
Pressure gradient source: uncorrected Ubar = 1.00157, pressure gradient = 7.6107
smoothSolver:  Solving for omega, Initial residual = 0.0500221, Final residual = 0.00290198, No Iterations 4
smoothSolver:  Solving for k, Initial residual = 0.0471305, Final residual = 0.00306859, No Iterations 5
ExecutionTime = 0.068649 s  ClockTime = 0 s

Time = 22s

smoothSolver:  Solving for Ux, Initial residual = 0.0106882, Final residual = 0.000843088, No Iterations 5
smoothSolver:  Solving for Uy, Initial residual = 0.290673, Final residual = 0.0220485, No Iterations 3
Pressure gradient source: uncorrected Ubar = 0.997865, pressure gradient = 8.08217
GAMG:  Solving for p, Initial residual = 0.163352, Final residual = 0.0149673, No Iterations 11
time step continuity errors : sum local = 0.0652223, global = -7.65447e-17, cumulative = 1.61386e-16
Pressure gradient source: uncorrected Ubar = 0.999302, pressure gradient = 7.76486
smoothSolver:  Solving for omega, Initial residual = 0.0487296, Final residual = 0.00311245, No Iterations 4
smoothSolver:  Solving for k, Initial residual = 0.0458873, Final residual = 0.0033619, No Iterations 5
ExecutionTime = 0.071456 s  ClockTime = 0 s

Time = 23s

smoothSolver:  Solving for Ux, Initial residual = 0.0100952, Final residual = 0.000833624, No Iterations 5
smoothSolver:  Solving for Uy, Initial residual = 0.236191, Final residual = 0.0219627, No Iterations 3
Pressure gradient source: uncorrected Ubar = 0.994763, pressure gradient = 9.03073
GAMG:  Solving for p, Initial residual = 0.0482043, Final residual = 0.00433919, No Iterations 9
time step continuity errors : sum local = 0.0697936, global = 7.9472e-17, cumulative = 2.40858e-16
Pressure gradient source: uncorrected Ubar = 0.998731, pressure gradient = 8.0715
smoothSolver:  Solving for omega, Initial residual = 0.0451129, Final residual = 0.00319604, No Iterations 4
smoothSolver:  Solving for k, Initial residual = 0.0434287, Final residual = 0.0034089, No Iterations 5
ExecutionTime = 0.074184 s  ClockTime = 0 s

Time = 24s

smoothSolver:  Solving for Ux, Initial residual = 0.00974255, Final residual = 0.000826107, No Iterations 5
smoothSolver:  Solving for Uy, Initial residual = 0.222826, Final residual = 0.0214847, No Iterations 3
Pressure gradient source: uncorrected Ubar = 0.999469, pressure gradient = 8.21005
GAMG:  Solving for p, Initial residual = 0.0293906, Final residual = 0.00262012, No Iterations 9
time step continuity errors : sum local = 0.0678718, global = 2.84603e-18, cumulative = 2.43704e-16
Pressure gradient source: uncorrected Ubar = 1.00046, pressure gradient = 7.95075
smoothSolver:  Solving for omega, Initial residual = 0.0435239, Final residual = 0.00332372, No Iterations 4
smoothSolver:  Solving for k, Initial residual = 0.0403473, Final residual = 0.00335398, No Iterations 5
ExecutionTime = 0.076975 s  ClockTime = 0 s

Time = 25s

smoothSolver:  Solving for Ux, Initial residual = 0.0094118, Final residual = 0.000808611, No Iterations 5
smoothSolver:  Solving for Uy, Initial residual = 0.200909, Final residual = 0.00973518, No Iterations 4
Pressure gradient source: uncorrected Ubar = 0.996493, pressure gradient = 8.9381
GAMG:  Solving for p, Initial residual = 0.0211652, Final residual = 0.0017662, No Iterations 9
time step continuity errors : sum local = 0.0565112, global = -8.26145e-17, cumulative = 1.61089e-16
Pressure gradient source: uncorrected Ubar = 0.999719, pressure gradient = 8.02991
smoothSolver:  Solving for omega, Initial residual = 0.0436971, Final residual = 0.0035215, No Iterations 4
smoothSolver:  Solving for k, Initial residual = 0.0376489, Final residual = 0.00332662, No Iterations 5
ExecutionTime = 0.079722 s  ClockTime = 0 s

Time = 26s

smoothSolver:  Solving for Ux, Initial residual = 0.00916465, Final residual = 0.000795341, No Iterations 5
smoothSolver:  Solving for Uy, Initial residual = 0.161009, Final residual = 0.00898509, No Iterations 4
Pressure gradient source: uncorrected Ubar = 1.00413, pressure gradient = 6.78386
GAMG:  Solving for p, Initial residual = 0.0147713, Final residual = 0.00111352, No Iterations 9
time step continuity errors : sum local = 0.0437803, global = -4.64039e-17, cumulative = 1.14686e-16
Pressure gradient source: uncorrected Ubar = 1.00093, pressure gradient = 7.75039
smoothSolver:  Solving for omega, Initial residual = 0.0423059, Final residual = 0.00357648, No Iterations 4
smoothSolver:  Solving for k, Initial residual = 0.0352931, Final residual = 0.0032795, No Iterations 5
ExecutionTime = 0.082464 s  ClockTime = 0 s

Time = 27s

smoothSolver:  Solving for Ux, Initial residual = 0.00888176, Final residual = 0.000775012, No Iterations 5
smoothSolver:  Solving for Uy, Initial residual = 0.120994, Final residual = 0.00774557, No Iterations 4
Pressure gradient source: uncorrected Ubar = 1.00586, pressure gradient = 5.84326
GAMG:  Solving for p, Initial residual = 0.0102054, Final residual = 0.00101638, No Iterations 7
time step continuity errors : sum local = 0.0430336, global = 5.63785e-17, cumulative = 1.71064e-16
Pressure gradient source: uncorrected Ubar = 1.00095, pressure gradient = 7.43987
smoothSolver:  Solving for omega, Initial residual = 0.0416162, Final residual = 0.00391249, No Iterations 4
smoothSolver:  Solving for k, Initial residual = 0.0330401, Final residual = 0.00320184, No Iterations 5
ExecutionTime = 0.085115 s  ClockTime = 0 s

Time = 28s

smoothSolver:  Solving for Ux, Initial residual = 0.00862657, Final residual = 0.000756172, No Iterations 5
smoothSolver:  Solving for Uy, Initial residual = 0.101037, Final residual = 0.00710462, No Iterations 4
Pressure gradient source: uncorrected Ubar = 1.00462, pressure gradient = 5.83707
GAMG:  Solving for p, Initial residual = 0.00742183, Final residual = 0.000579647, No Iterations 9
time step continuity errors : sum local = 0.0260449, global = 4.16334e-17, cumulative = 2.12697e-16
Pressure gradient source: uncorrected Ubar = 1.0006, pressure gradient = 7.23255
smoothSolver:  Solving for omega, Initial residual = 0.0402028, Final residual = 0.00378827, No Iterations 4
smoothSolver:  Solving for k, Initial residual = 0.0308788, Final residual = 0.00196524, No Iterations 6
ExecutionTime = 0.087901 s  ClockTime = 0 s

Time = 29s

smoothSolver:  Solving for Ux, Initial residual = 0.00839087, Final residual = 0.000737258, No Iterations 5
smoothSolver:  Solving for Uy, Initial residual = 0.0897624, Final residual = 0.00722357, No Iterations 4
Pressure gradient source: uncorrected Ubar = 1.00849, pressure gradient = 4.04979
GAMG:  Solving for p, Initial residual = 0.00565379, Final residual = 0.00046134, No Iterations 8
time step continuity errors : sum local = 0.0211755, global = 7.58942e-19, cumulative = 2.13456e-16
Pressure gradient source: uncorrected Ubar = 1.00119, pressure gradient = 6.78737
smoothSolver:  Solving for omega, Initial residual = 0.0398633, Final residual = 0.003954, No Iterations 4
smoothSolver:  Solving for k, Initial residual = 0.0290292, Final residual = 0.001931, No Iterations 6
ExecutionTime = 0.090613 s  ClockTime = 0 s

Time = 30s

smoothSolver:  Solving for Ux, Initial residual = 0.00814328, Final residual = 0.000717114, No Iterations 5
smoothSolver:  Solving for Uy, Initial residual = 0.0735216, Final residual = 0.00704166, No Iterations 4
Pressure gradient source: uncorrected Ubar = 1.00454, pressure gradient = 4.96586
GAMG:  Solving for p, Initial residual = 0.00487488, Final residual = 0.000484692, No Iterations 6
time step continuity errors : sum local = 0.0196308, global = -9.50845e-17, cumulative = 1.18372e-16
Pressure gradient source: uncorrected Ubar = 1.00046, pressure gradient = 6.60425
smoothSolver:  Solving for omega, Initial residual = 0.0360584, Final residual = 0.00240949, No Iterations 5
smoothSolver:  Solving for k, Initial residual = 0.0273684, Final residual = 0.00189193, No Iterations 6
ExecutionTime = 0.093261 s  ClockTime = 0 s

Time = 31s

smoothSolver:  Solving for Ux, Initial residual = 0.00792515, Final residual = 0.000699879, No Iterations 5
smoothSolver:  Solving for Uy, Initial residual = 0.0616479, Final residual = 0.00389016, No Iterations 5
Pressure gradient source: uncorrected Ubar = 1.00494, pressure gradient = 4.48786
GAMG:  Solving for p, Initial residual = 0.00417652, Final residual = 0.000353286, No Iterations 6
time step continuity errors : sum local = 0.0127342, global = -1.01481e-16, cumulative = 1.68905e-17
Pressure gradient source: uncorrected Ubar = 1.00057, pressure gradient = 6.36093
smoothSolver:  Solving for omega, Initial residual = 0.0340803, Final residual = 0.00255021, No Iterations 5
smoothSolver:  Solving for k, Initial residual = 0.0256674, Final residual = 0.00180919, No Iterations 6
ExecutionTime = 0.095886 s  ClockTime = 0 s

Time = 32s

smoothSolver:  Solving for Ux, Initial residual = 0.00772725, Final residual = 0.000684193, No Iterations 5
smoothSolver:  Solving for Uy, Initial residual = 0.0607453, Final residual = 0.00358984, No Iterations 5
Pressure gradient source: uncorrected Ubar = 1.00353, pressure gradient = 4.77236
GAMG:  Solving for p, Initial residual = 0.00370956, Final residual = 0.000143396, No Iterations 5
time step continuity errors : sum local = 0.00449774, global = 7.42678e-17, cumulative = 9.11584e-17
Pressure gradient source: uncorrected Ubar = 1.00033, pressure gradient = 6.21088
smoothSolver:  Solving for omega, Initial residual = 0.0307429, Final residual = 0.00241284, No Iterations 5
smoothSolver:  Solving for k, Initial residual = 0.0241744, Final residual = 0.00174043, No Iterations 6
ExecutionTime = 0.098498 s  ClockTime = 0 s

Time = 33s

smoothSolver:  Solving for Ux, Initial residual = 0.00753452, Final residual = 0.000667545, No Iterations 5
smoothSolver:  Solving for Uy, Initial residual = 0.0567513, Final residual = 0.00564637, No Iterations 4
Pressure gradient source: uncorrected Ubar = 1.00344, pressure gradient = 4.55476
GAMG:  Solving for p, Initial residual = 0.00349378, Final residual = 0.000254028, No Iterations 4
time step continuity errors : sum local = 0.00594857, global = 6.03871e-17, cumulative = 1.51545e-16
Pressure gradient source: uncorrected Ubar = 1.0003, pressure gradient = 6.06497
smoothSolver:  Solving for omega, Initial residual = 0.0288781, Final residual = 0.00243777, No Iterations 5
smoothSolver:  Solving for k, Initial residual = 0.0226213, Final residual = 0.00164912, No Iterations 6
ExecutionTime = 0.101035 s  ClockTime = 0 s

Time = 34s

smoothSolver:  Solving for Ux, Initial residual = 0.0073011, Final residual = 0.00064317, No Iterations 5
smoothSolver:  Solving for Uy, Initial residual = 0.0485174, Final residual = 0.00305442, No Iterations 5
Pressure gradient source: uncorrected Ubar = 1.00166, pressure gradient = 5.2263
GAMG:  Solving for p, Initial residual = 0.00313994, Final residual = 0.000194693, No Iterations 4
time step continuity errors : sum local = 0.00507505, global = 1.95072e-18, cumulative = 1.53496e-16
Pressure gradient source: uncorrected Ubar = 1.00006, pressure gradient = 6.03413
smoothSolver:  Solving for omega, Initial residual = 0.0263787, Final residual = 0.00231455, No Iterations 5
smoothSolver:  Solving for k, Initial residual = 0.020868, Final residual = 0.00155296, No Iterations 6
ExecutionTime = 0.103572 s  ClockTime = 0 s

Time = 35s

smoothSolver:  Solving for Ux, Initial residual = 0.00699506, Final residual = 0.000614473, No Iterations 5
smoothSolver:  Solving for Uy, Initial residual = 0.0421069, Final residual = 0.00292479, No Iterations 5
Pressure gradient source: uncorrected Ubar = 1.00109, pressure gradient = 5.44227
GAMG:  Solving for p, Initial residual = 0.00304574, Final residual = 0.000241468, No Iterations 8
time step continuity errors : sum local = 0.00580759, global = 7.59467e-17, cumulative = 2.29443e-16
Pressure gradient source: uncorrected Ubar = 0.999991, pressure gradient = 6.03896
smoothSolver:  Solving for omega, Initial residual = 0.024945, Final residual = 0.00233251, No Iterations 5
smoothSolver:  Solving for k, Initial residual = 0.018928, Final residual = 0.00141367, No Iterations 6
ExecutionTime = 0.106319 s  ClockTime = 0 s

Time = 36s

smoothSolver:  Solving for Ux, Initial residual = 0.00673756, Final residual = 0.000589242, No Iterations 5
smoothSolver:  Solving for Uy, Initial residual = 0.0372955, Final residual = 0.00282893, No Iterations 5
Pressure gradient source: uncorrected Ubar = 1.00028, pressure gradient = 5.87966
GAMG:  Solving for p, Initial residual = 0.00288974, Final residual = 0.000254619, No Iterations 10
time step continuity errors : sum local = 0.00541935, global = 3.03585e-17, cumulative = 2.59801e-16
Pressure gradient source: uncorrected Ubar = 0.999879, pressure gradient = 6.10822
smoothSolver:  Solving for omega, Initial residual = 0.0224795, Final residual = 0.00215152, No Iterations 5
smoothSolver:  Solving for k, Initial residual = 0.0171128, Final residual = 0.00127794, No Iterations 6
ExecutionTime = 0.109129 s  ClockTime = 0 s

Time = 37s

smoothSolver:  Solving for Ux, Initial residual = 0.00650261, Final residual = 0.000565913, No Iterations 5
smoothSolver:  Solving for Uy, Initial residual = 0.0326645, Final residual = 0.00266026, No Iterations 5
Pressure gradient source: uncorrected Ubar = 1.0003, pressure gradient = 5.92671
GAMG:  Solving for p, Initial residual = 0.00265909, Final residual = 0.000257214, No Iterations 12
time step continuity errors : sum local = 0.00471045, global = 4.40186e-17, cumulative = 3.0382e-16
Pressure gradient source: uncorrected Ubar = 0.999894, pressure gradient = 6.17259
smoothSolver:  Solving for omega, Initial residual = 0.0212854, Final residual = 0.00211429, No Iterations 5
smoothSolver:  Solving for k, Initial residual = 0.0156018, Final residual = 0.00117222, No Iterations 6
ExecutionTime = 0.112032 s  ClockTime = 0 s

Time = 38s

smoothSolver:  Solving for Ux, Initial residual = 0.00629767, Final residual = 0.000545905, No Iterations 5
smoothSolver:  Solving for Uy, Initial residual = 0.0284623, Final residual = 0.00247835, No Iterations 5
Pressure gradient source: uncorrected Ubar = 1.00003, pressure gradient = 6.15193
GAMG:  Solving for p, Initial residual = 0.00237038, Final residual = 0.000233105, No Iterations 14
time step continuity errors : sum local = 0.00364524, global = -1.39862e-17, cumulative = 2.89834e-16
Pressure gradient source: uncorrected Ubar = 0.999859, pressure gradient = 6.26332
smoothSolver:  Solving for omega, Initial residual = 0.0191897, Final residual = 0.00126185, No Iterations 6
smoothSolver:  Solving for k, Initial residual = 0.0143262, Final residual = 0.00108707, No Iterations 6
ExecutionTime = 0.115051 s  ClockTime = 0 s

Time = 39s

smoothSolver:  Solving for Ux, Initial residual = 0.00610715, Final residual = 0.000527335, No Iterations 5
smoothSolver:  Solving for Uy, Initial residual = 0.0249837, Final residual = 0.00233118, No Iterations 5
Pressure gradient source: uncorrected Ubar = 1.00036, pressure gradient = 6.02018
GAMG:  Solving for p, Initial residual = 0.00222062, Final residual = 0.000209998, No Iterations 9
time step continuity errors : sum local = 0.0028875, global = 4.72712e-17, cumulative = 3.37105e-16
Pressure gradient source: uncorrected Ubar = 0.999918, pressure gradient = 6.31961
smoothSolver:  Solving for omega, Initial residual = 0.0179284, Final residual = 0.00120683, No Iterations 6
smoothSolver:  Solving for k, Initial residual = 0.0131113, Final residual = 0.000993646, No Iterations 6
ExecutionTime = 0.117882 s  ClockTime = 0 s

Time = 40s

smoothSolver:  Solving for Ux, Initial residual = 0.00593782, Final residual = 0.000511306, No Iterations 5
smoothSolver:  Solving for Uy, Initial residual = 0.0229082, Final residual = 0.00226561, No Iterations 5
Pressure gradient source: uncorrected Ubar = 1.00043, pressure gradient = 6.01043
GAMG:  Solving for p, Initial residual = 0.00198788, Final residual = 0.000179204, No Iterations 17
time step continuity errors : sum local = 0.00205388, global = 6.17995e-17, cumulative = 3.98905e-16
Pressure gradient source: uncorrected Ubar = 0.999929, pressure gradient = 6.37051
smoothSolver:  Solving for omega, Initial residual = 0.0162338, Final residual = 0.00112416, No Iterations 6
smoothSolver:  Solving for k, Initial residual = 0.0121443, Final residual = 0.000935671, No Iterations 6
ExecutionTime = 0.121032 s  ClockTime = 0 s

Time = 41s

smoothSolver:  Solving for Ux, Initial residual = 0.00578224, Final residual = 0.000496922, No Iterations 5
smoothSolver:  Solving for Uy, Initial residual = 0.0222998, Final residual = 0.00149642, No Iterations 6
Pressure gradient source: uncorrected Ubar = 1.00061, pressure gradient = 5.90639
GAMG:  Solving for p, Initial residual = 0.00177694, Final residual = 0.000151631, No Iterations 17
time step continuity errors : sum local = 0.00154644, global = 2.22804e-17, cumulative = 4.21185e-16
Pressure gradient source: uncorrected Ubar = 0.999962, pressure gradient = 6.39897
smoothSolver:  Solving for omega, Initial residual = 0.015021, Final residual = 0.00105681, No Iterations 6
smoothSolver:  Solving for k, Initial residual = 0.0112362, Final residual = 0.000866731, No Iterations 6
ExecutionTime = 0.124175 s  ClockTime = 0 s

Time = 42s

smoothSolver:  Solving for Ux, Initial residual = 0.00564267, Final residual = 0.000484666, No Iterations 5
smoothSolver:  Solving for Uy, Initial residual = 0.0223548, Final residual = 0.00153328, No Iterations 6
Pressure gradient source: uncorrected Ubar = 1.00068, pressure gradient = 5.86224
GAMG:  Solving for p, Initial residual = 0.0015116, Final residual = 0.000143797, No Iterations 15
time step continuity errors : sum local = 0.00132896, global = 8.40801e-17, cumulative = 5.05265e-16
Pressure gradient source: uncorrected Ubar = 0.999973, pressure gradient = 6.42044
smoothSolver:  Solving for omega, Initial residual = 0.0137593, Final residual = 0.000987696, No Iterations 6
smoothSolver:  Solving for k, Initial residual = 0.0104414, Final residual = 0.000813843, No Iterations 6
ExecutionTime = 0.127256 s  ClockTime = 0 s

Time = 43s

smoothSolver:  Solving for Ux, Initial residual = 0.00551466, Final residual = 0.000473871, No Iterations 5
smoothSolver:  Solving for Uy, Initial residual = 0.0231324, Final residual = 0.0015894, No Iterations 6
Pressure gradient source: uncorrected Ubar = 1.00083, pressure gradient = 5.73106
GAMG:  Solving for p, Initial residual = 0.00138983, Final residual = 0.000120118, No Iterations 15
time step continuity errors : sum local = 0.00104623, global = 8.60317e-17, cumulative = 5.91297e-16
Pressure gradient source: uncorrected Ubar = 1, pressure gradient = 6.41938
smoothSolver:  Solving for omega, Initial residual = 0.0127844, Final residual = 0.000924606, No Iterations 6
smoothSolver:  Solving for k, Initial residual = 0.00971535, Final residual = 0.000756793, No Iterations 6
ExecutionTime = 0.130316 s  ClockTime = 0 s

Time = 44s

smoothSolver:  Solving for Ux, Initial residual = 0.00539776, Final residual = 0.00046448, No Iterations 5
smoothSolver:  Solving for Uy, Initial residual = 0.0241282, Final residual = 0.00166722, No Iterations 6
Pressure gradient source: uncorrected Ubar = 1.00084, pressure gradient = 5.69537
GAMG:  Solving for p, Initial residual = 0.00120048, Final residual = 0.000119401, No Iterations 13
time step continuity errors : sum local = 0.000965324, global = 2.12505e-17, cumulative = 6.12547e-16
Pressure gradient source: uncorrected Ubar = 1, pressure gradient = 6.41565
smoothSolver:  Solving for omega, Initial residual = 0.0120236, Final residual = 0.000888274, No Iterations 6
smoothSolver:  Solving for k, Initial residual = 0.00906945, Final residual = 0.000709975, No Iterations 6
ExecutionTime = 0.133302 s  ClockTime = 0 s

Time = 45s

smoothSolver:  Solving for Ux, Initial residual = 0.00529068, Final residual = 0.000456274, No Iterations 5
smoothSolver:  Solving for Uy, Initial residual = 0.0250973, Final residual = 0.00174346, No Iterations 6
Pressure gradient source: uncorrected Ubar = 1.00086, pressure gradient = 5.64202
GAMG:  Solving for p, Initial residual = 0.00106321, Final residual = 9.07489e-05, No Iterations 15
time step continuity errors : sum local = 0.000723164, global = -3.30682e-18, cumulative = 6.0924e-16
Pressure gradient source: uncorrected Ubar = 1.00001, pressure gradient = 6.40563
smoothSolver:  Solving for omega, Initial residual = 0.0111703, Final residual = 0.000825211, No Iterations 6
smoothSolver:  Solving for k, Initial residual = 0.00851821, Final residual = 0.000671493, No Iterations 6
ExecutionTime = 0.13638 s  ClockTime = 0 s

Time = 46s

smoothSolver:  Solving for Ux, Initial residual = 0.00519188, Final residual = 0.000448843, No Iterations 5
smoothSolver:  Solving for Uy, Initial residual = 0.025681, Final residual = 0.00180108, No Iterations 6
Pressure gradient source: uncorrected Ubar = 1.0009, pressure gradient = 5.56214
GAMG:  Solving for p, Initial residual = 0.000957852, Final residual = 8.18257e-05, No Iterations 15
time step continuity errors : sum local = 0.000625691, global = -3.25261e-17, cumulative = 5.76714e-16
Pressure gradient source: uncorrected Ubar = 1.00002, pressure gradient = 6.38612
smoothSolver:  Solving for omega, Initial residual = 0.0106391, Final residual = 0.000794849, No Iterations 6
smoothSolver:  Solving for k, Initial residual = 0.00796985, Final residual = 0.00062524, No Iterations 6
ExecutionTime = 0.139471 s  ClockTime = 0 s

Time = 47s

smoothSolver:  Solving for Ux, Initial residual = 0.00510011, Final residual = 0.000442266, No Iterations 5
smoothSolver:  Solving for Uy, Initial residual = 0.0261756, Final residual = 0.00184723, No Iterations 6
Pressure gradient source: uncorrected Ubar = 1.00087, pressure gradient = 5.542
GAMG:  Solving for p, Initial residual = 0.000848772, Final residual = 8.41932e-05, No Iterations 13
time step continuity errors : sum local = 0.000613898, global = 6.29108e-17, cumulative = 6.39625e-16
Pressure gradient source: uncorrected Ubar = 1.00002, pressure gradient = 6.36798
smoothSolver:  Solving for omega, Initial residual = 0.00999153, Final residual = 0.000741155, No Iterations 6
smoothSolver:  Solving for k, Initial residual = 0.00754295, Final residual = 0.000598761, No Iterations 6
ExecutionTime = 0.142487 s  ClockTime = 0 s

Time = 48s

smoothSolver:  Solving for Ux, Initial residual = 0.00501368, Final residual = 0.000436137, No Iterations 5
smoothSolver:  Solving for Uy, Initial residual = 0.026524, Final residual = 0.00187984, No Iterations 6
Pressure gradient source: uncorrected Ubar = 1.00091, pressure gradient = 5.45162
GAMG:  Solving for p, Initial residual = 0.000810267, Final residual = 7.20962e-05, No Iterations 13
time step continuity errors : sum local = 0.000518283, global = -1.34442e-17, cumulative = 6.26181e-16
Pressure gradient source: uncorrected Ubar = 1.00003, pressure gradient = 6.33931
smoothSolver:  Solving for omega, Initial residual = 0.00955943, Final residual = 0.000716563, No Iterations 6
smoothSolver:  Solving for k, Initial residual = 0.00710974, Final residual = 0.000561345, No Iterations 6
ExecutionTime = 0.145482 s  ClockTime = 0 s

Time = 49s

smoothSolver:  Solving for Ux, Initial residual = 0.00493302, Final residual = 0.000430647, No Iterations 5
smoothSolver:  Solving for Uy, Initial residual = 0.0267002, Final residual = 0.00190234, No Iterations 6
Pressure gradient source: uncorrected Ubar = 1.00086, pressure gradient = 5.44164
GAMG:  Solving for p, Initial residual = 0.000749746, Final residual = 6.52435e-05, No Iterations 14
time step continuity errors : sum local = 0.000434984, global = 8.05025e-18, cumulative = 6.34231e-16
Pressure gradient source: uncorrected Ubar = 1.00002, pressure gradient = 6.31522
smoothSolver:  Solving for omega, Initial residual = 0.00901187, Final residual = 0.000671616, No Iterations 6
smoothSolver:  Solving for k, Initial residual = 0.0067383, Final residual = 0.000533286, No Iterations 6
ExecutionTime = 0.14853 s  ClockTime = 0 s

Time = 50s

smoothSolver:  Solving for Ux, Initial residual = 0.00485757, Final residual = 0.000425631, No Iterations 5
smoothSolver:  Solving for Uy, Initial residual = 0.0266912, Final residual = 0.00191539, No Iterations 6
Pressure gradient source: uncorrected Ubar = 1.00087, pressure gradient = 5.37627
GAMG:  Solving for p, Initial residual = 0.00073493, Final residual = 6.61831e-05, No Iterations 14
time step continuity errors : sum local = 0.000409452, global = 5.48064e-17, cumulative = 6.89038e-16
Pressure gradient source: uncorrected Ubar = 1.00003, pressure gradient = 6.28569
smoothSolver:  Solving for omega, Initial residual = 0.0086586, Final residual = 0.000652192, No Iterations 6
smoothSolver:  Solving for k, Initial residual = 0.00640228, Final residual = 0.000500649, No Iterations 6
ExecutionTime = 0.151532 s  ClockTime = 0 s

Time = 51s

smoothSolver:  Solving for Ux, Initial residual = 0.00478665, Final residual = 0.000420911, No Iterations 5
smoothSolver:  Solving for Uy, Initial residual = 0.0268351, Final residual = 0.00193456, No Iterations 6
Pressure gradient source: uncorrected Ubar = 1.00084, pressure gradient = 5.34917
GAMG:  Solving for p, Initial residual = 0.000722521, Final residual = 6.91057e-05, No Iterations 14
time step continuity errors : sum local = 0.000395207, global = 1.1303e-17, cumulative = 7.00341e-16
Pressure gradient source: uncorrected Ubar = 1.00002, pressure gradient = 6.25813
smoothSolver:  Solving for omega, Initial residual = 0.00817735, Final residual = 0.000613011, No Iterations 6
smoothSolver:  Solving for k, Initial residual = 0.00612512, Final residual = 0.000477899, No Iterations 6
ExecutionTime = 0.154585 s  ClockTime = 0 s

Time = 52s

smoothSolver:  Solving for Ux, Initial residual = 0.00471858, Final residual = 0.000416425, No Iterations 5
smoothSolver:  Solving for Uy, Initial residual = 0.0270883, Final residual = 0.00196342, No Iterations 6
Pressure gradient source: uncorrected Ubar = 1.00084, pressure gradient = 5.28602
GAMG:  Solving for p, Initial residual = 0.000734498, Final residual = 6.83018e-05, No Iterations 15
time step continuity errors : sum local = 0.000373935, global = -9.24282e-17, cumulative = 6.07912e-16
Pressure gradient source: uncorrected Ubar = 1.00003, pressure gradient = 6.22612
smoothSolver:  Solving for omega, Initial residual = 0.00790517, Final residual = 0.000600171, No Iterations 6
smoothSolver:  Solving for k, Initial residual = 0.00594535, Final residual = 0.000459189, No Iterations 6
ExecutionTime = 0.157694 s  ClockTime = 0 s

Time = 53s

smoothSolver:  Solving for Ux, Initial residual = 0.00465339, Final residual = 0.000412135, No Iterations 5
smoothSolver:  Solving for Uy, Initial residual = 0.0272051, Final residual = 0.00198493, No Iterations 6
Pressure gradient source: uncorrected Ubar = 1.00081, pressure gradient = 5.26899
GAMG:  Solving for p, Initial residual = 0.000745315, Final residual = 7.11028e-05, No Iterations 15
time step continuity errors : sum local = 0.000358262, global = -5.29091e-17, cumulative = 5.55003e-16
Pressure gradient source: uncorrected Ubar = 1.00002, pressure gradient = 6.19808
smoothSolver:  Solving for omega, Initial residual = 0.0075308, Final residual = 0.000567385, No Iterations 6
smoothSolver:  Solving for k, Initial residual = 0.00577017, Final residual = 0.000442215, No Iterations 6
ExecutionTime = 0.160754 s  ClockTime = 0 s

Time = 54s

smoothSolver:  Solving for Ux, Initial residual = 0.00459115, Final residual = 0.000408079, No Iterations 5
smoothSolver:  Solving for Uy, Initial residual = 0.0272454, Final residual = 0.00199851, No Iterations 6
Pressure gradient source: uncorrected Ubar = 1.00078, pressure gradient = 5.24034
GAMG:  Solving for p, Initial residual = 0.000740749, Final residual = 7.00668e-05, No Iterations 15
time step continuity errors : sum local = 0.00032571, global = -4.07389e-17, cumulative = 5.14264e-16
Pressure gradient source: uncorrected Ubar = 1.00002, pressure gradient = 6.1713
smoothSolver:  Solving for omega, Initial residual = 0.00719795, Final residual = 0.000543841, No Iterations 6
smoothSolver:  Solving for k, Initial residual = 0.00565817, Final residual = 0.000433688, No Iterations 6
ExecutionTime = 0.163811 s  ClockTime = 0 s

Time = 55s

smoothSolver:  Solving for Ux, Initial residual = 0.00453295, Final residual = 0.000404343, No Iterations 5
smoothSolver:  Solving for Uy, Initial residual = 0.0273941, Final residual = 0.00202041, No Iterations 6
Pressure gradient source: uncorrected Ubar = 1.00077, pressure gradient = 5.19718
GAMG:  Solving for p, Initial residual = 0.000787246, Final residual = 7.30914e-05, No Iterations 15
time step continuity errors : sum local = 0.000310294, global = -4.58753e-17, cumulative = 4.68389e-16
Pressure gradient source: uncorrected Ubar = 1.00002, pressure gradient = 6.14318
smoothSolver:  Solving for omega, Initial residual = 0.0069443, Final residual = 0.000523777, No Iterations 6
smoothSolver:  Solving for k, Initial residual = 0.0055461, Final residual = 0.000424835, No Iterations 6
ExecutionTime = 0.166899 s  ClockTime = 0 s

Time = 56s

smoothSolver:  Solving for Ux, Initial residual = 0.00447776, Final residual = 0.000400805, No Iterations 5
smoothSolver:  Solving for Uy, Initial residual = 0.0277164, Final residual = 0.00205241, No Iterations 6
Pressure gradient source: uncorrected Ubar = 1.00075, pressure gradient = 5.17611
GAMG:  Solving for p, Initial residual = 0.000775365, Final residual = 7.48214e-05, No Iterations 15
time step continuity errors : sum local = 0.00029064, global = 2.90702e-17, cumulative = 4.97459e-16
Pressure gradient source: uncorrected Ubar = 1.00002, pressure gradient = 6.11765
smoothSolver:  Solving for omega, Initial residual = 0.00667265, Final residual = 0.000504808, No Iterations 6
smoothSolver:  Solving for k, Initial residual = 0.00548515, Final residual = 0.000423718, No Iterations 6
ExecutionTime = 0.169988 s  ClockTime = 0 s

Time = 57s

smoothSolver:  Solving for Ux, Initial residual = 0.00442386, Final residual = 0.000397238, No Iterations 5
smoothSolver:  Solving for Uy, Initial residual = 0.0277631, Final residual = 0.00206825, No Iterations 6
Pressure gradient source: uncorrected Ubar = 1.00073, pressure gradient = 5.14942
GAMG:  Solving for p, Initial residual = 0.000787384, Final residual = 7.74452e-05, No Iterations 15
time step continuity errors : sum local = 0.000274023, global = -1.54499e-18, cumulative = 4.95914e-16
Pressure gradient source: uncorrected Ubar = 1.00002, pressure gradient = 6.09341
smoothSolver:  Solving for omega, Initial residual = 0.0064366, Final residual = 0.00048876, No Iterations 6
smoothSolver:  Solving for k, Initial residual = 0.00541162, Final residual = 0.000419322, No Iterations 6
ExecutionTime = 0.173049 s  ClockTime = 0 s

Time = 58s

smoothSolver:  Solving for Ux, Initial residual = 0.00437132, Final residual = 0.000393722, No Iterations 5
smoothSolver:  Solving for Uy, Initial residual = 0.0275802, Final residual = 0.00206711, No Iterations 6
Pressure gradient source: uncorrected Ubar = 1.00071, pressure gradient = 5.12806
GAMG:  Solving for p, Initial residual = 0.000802612, Final residual = 7.88703e-05, No Iterations 15
time step continuity errors : sum local = 0.000255351, global = 2.09522e-17, cumulative = 5.16866e-16
Pressure gradient source: uncorrected Ubar = 1.00002, pressure gradient = 6.07119
smoothSolver:  Solving for omega, Initial residual = 0.00622271, Final residual = 0.000471954, No Iterations 6
smoothSolver:  Solving for k, Initial residual = 0.00534573, Final residual = 0.00041445, No Iterations 6
ExecutionTime = 0.17616 s  ClockTime = 0 s

Time = 59s

smoothSolver:  Solving for Ux, Initial residual = 0.00432031, Final residual = 0.000390332, No Iterations 5
smoothSolver:  Solving for Uy, Initial residual = 0.0274833, Final residual = 0.00206949, No Iterations 6
Pressure gradient source: uncorrected Ubar = 1.00069, pressure gradient = 5.10445
GAMG:  Solving for p, Initial residual = 0.000812557, Final residual = 7.83437e-05, No Iterations 19
time step continuity errors : sum local = 0.000232596, global = -6.49302e-17, cumulative = 4.51936e-16
Pressure gradient source: uncorrected Ubar = 1.00001, pressure gradient = 6.05053
smoothSolver:  Solving for omega, Initial residual = 0.00604035, Final residual = 0.000457005, No Iterations 6
smoothSolver:  Solving for k, Initial residual = 0.00530433, Final residual = 0.000413945, No Iterations 6
ExecutionTime = 0.179396 s  ClockTime = 0 s

Time = 60s

smoothSolver:  Solving for Ux, Initial residual = 0.00427092, Final residual = 0.000387072, No Iterations 5
smoothSolver:  Solving for Uy, Initial residual = 0.027396, Final residual = 0.00207276, No Iterations 6
Pressure gradient source: uncorrected Ubar = 1.00067, pressure gradient = 5.08553
GAMG:  Solving for p, Initial residual = 0.000831128, Final residual = 8.00683e-05, No Iterations 19
time step continuity errors : sum local = 0.000217916, global = -3.75676e-17, cumulative = 4.14369e-16
Pressure gradient source: uncorrected Ubar = 1.00001, pressure gradient = 6.03199
smoothSolver:  Solving for omega, Initial residual = 0.00586148, Final residual = 0.000446073, No Iterations 6
smoothSolver:  Solving for k, Initial residual = 0.00525723, Final residual = 0.000409666, No Iterations 6
ExecutionTime = 0.182644 s  ClockTime = 0 s

Time = 61s

smoothSolver:  Solving for Ux, Initial residual = 0.0042241, Final residual = 0.000383974, No Iterations 5
smoothSolver:  Solving for Uy, Initial residual = 0.0274857, Final residual = 0.00208436, No Iterations 6
Pressure gradient source: uncorrected Ubar = 1.00066, pressure gradient = 5.05365
GAMG:  Solving for p, Initial residual = 0.000850398, Final residual = 8.38454e-05, No Iterations 19
time step continuity errors : sum local = 0.000208523, global = -6.01326e-17, cumulative = 3.54236e-16
Pressure gradient source: uncorrected Ubar = 1.00001, pressure gradient = 6.01339
smoothSolver:  Solving for omega, Initial residual = 0.00567428, Final residual = 0.000431709, No Iterations 6
smoothSolver:  Solving for k, Initial residual = 0.00522681, Final residual = 0.000411548, No Iterations 6
ExecutionTime = 0.186165 s  ClockTime = 0 s

Time = 62s

smoothSolver:  Solving for Ux, Initial residual = 0.00417847, Final residual = 0.000380825, No Iterations 5
smoothSolver:  Solving for Uy, Initial residual = 0.0274936, Final residual = 0.00208642, No Iterations 6
Pressure gradient source: uncorrected Ubar = 1.00066, pressure gradient = 5.01441
GAMG:  Solving for p, Initial residual = 0.0009232, Final residual = 8.92942e-05, No Iterations 19
time step continuity errors : sum local = 0.000202421, global = -3.4315e-17, cumulative = 3.19921e-16
Pressure gradient source: uncorrected Ubar = 1.00001, pressure gradient = 5.99367
smoothSolver:  Solving for omega, Initial residual = 0.0054995, Final residual = 0.000407584, No Iterations 6
smoothSolver:  Solving for k, Initial residual = 0.00517807, Final residual = 0.000406154, No Iterations 6
ExecutionTime = 0.189614 s  ClockTime = 0 s

Time = 63s

smoothSolver:  Solving for Ux, Initial residual = 0.00413613, Final residual = 0.000377873, No Iterations 5
smoothSolver:  Solving for Uy, Initial residual = 0.0275736, Final residual = 0.00209988, No Iterations 6
Pressure gradient source: uncorrected Ubar = 1.00069, pressure gradient = 4.91982
GAMG:  Solving for p, Initial residual = 0.000965626, Final residual = 9.33231e-05, No Iterations 19
time step continuity errors : sum local = 0.000193409, global = 2.47876e-17, cumulative = 3.44709e-16
Pressure gradient source: uncorrected Ubar = 1.00002, pressure gradient = 5.96402
smoothSolver:  Solving for omega, Initial residual = 0.00537166, Final residual = 0.00040148, No Iterations 6
smoothSolver:  Solving for k, Initial residual = 0.00516564, Final residual = 0.000408251, No Iterations 6
ExecutionTime = 0.192911 s  ClockTime = 0 s

Time = 64s

smoothSolver:  Solving for Ux, Initial residual = 0.00409391, Final residual = 0.000374915, No Iterations 5
smoothSolver:  Solving for Uy, Initial residual = 0.0276714, Final residual = 0.00211178, No Iterations 6
Pressure gradient source: uncorrected Ubar = 1.00067, pressure gradient = 4.90612
GAMG:  Solving for p, Initial residual = 0.00102205, Final residual = 9.74956e-05, No Iterations 19
time step continuity errors : sum local = 0.000183723, global = 4.08202e-17, cumulative = 3.85529e-16
Pressure gradient source: uncorrected Ubar = 1.00002, pressure gradient = 5.93984
smoothSolver:  Solving for omega, Initial residual = 0.00523348, Final residual = 0.000391393, No Iterations 6
smoothSolver:  Solving for k, Initial residual = 0.00514272, Final residual = 0.000406136, No Iterations 6
ExecutionTime = 0.196214 s  ClockTime = 0 s

Time = 65s

smoothSolver:  Solving for Ux, Initial residual = 0.00405251, Final residual = 0.000371956, No Iterations 5
smoothSolver:  Solving for Uy, Initial residual = 0.0277046, Final residual = 0.00211786, No Iterations 6
Pressure gradient source: uncorrected Ubar = 1.00065, pressure gradient = 4.87818
GAMG:  Solving for p, Initial residual = 0.00108632, Final residual = 0.000102982, No Iterations 19
time step continuity errors : sum local = 0.000175939, global = 5.22856e-17, cumulative = 4.37815e-16
Pressure gradient source: uncorrected Ubar = 1.00001, pressure gradient = 5.91824
smoothSolver:  Solving for omega, Initial residual = 0.00510473, Final residual = 0.000379406, No Iterations 6
smoothSolver:  Solving for k, Initial residual = 0.00511663, Final residual = 0.000407084, No Iterations 6
ExecutionTime = 0.199545 s  ClockTime = 0 s

Time = 66s

smoothSolver:  Solving for Ux, Initial residual = 0.00401202, Final residual = 0.000369181, No Iterations 5
smoothSolver:  Solving for Uy, Initial residual = 0.027644, Final residual = 0.00211917, No Iterations 6
Pressure gradient source: uncorrected Ubar = 1.00064, pressure gradient = 4.84204
GAMG:  Solving for p, Initial residual = 0.00117856, Final residual = 0.000108368, No Iterations 19
time step continuity errors : sum local = 0.000167324, global = -3.32376e-17, cumulative = 4.04577e-16
Pressure gradient source: uncorrected Ubar = 1.00001, pressure gradient = 5.89793
smoothSolver:  Solving for omega, Initial residual = 0.00499728, Final residual = 0.000373236, No Iterations 6
smoothSolver:  Solving for k, Initial residual = 0.00509235, Final residual = 0.000404681, No Iterations 6
ExecutionTime = 0.20282 s  ClockTime = 0 s

Time = 67s

smoothSolver:  Solving for Ux, Initial residual = 0.00397304, Final residual = 0.000366381, No Iterations 5
smoothSolver:  Solving for Uy, Initial residual = 0.0275914, Final residual = 0.00211611, No Iterations 6
Pressure gradient source: uncorrected Ubar = 1.00063, pressure gradient = 4.82772
GAMG:  Solving for p, Initial residual = 0.00130414, Final residual = 0.000114628, No Iterations 19
time step continuity errors : sum local = 0.000159121, global = 1.54431e-17, cumulative = 4.2002e-16
Pressure gradient source: uncorrected Ubar = 1.00001, pressure gradient = 5.8828
smoothSolver:  Solving for omega, Initial residual = 0.00489338, Final residual = 0.000364702, No Iterations 6
smoothSolver:  Solving for k, Initial residual = 0.005078, Final residual = 0.000405242, No Iterations 6
ExecutionTime = 0.206086 s  ClockTime = 0 s

Time = 68s

smoothSolver:  Solving for Ux, Initial residual = 0.00393515, Final residual = 0.00036362, No Iterations 5
smoothSolver:  Solving for Uy, Initial residual = 0.0274889, Final residual = 0.00211535, No Iterations 6
Pressure gradient source: uncorrected Ubar = 1.00062, pressure gradient = 4.80138
GAMG:  Solving for p, Initial residual = 0.00147393, Final residual = 0.0001426, No Iterations 17
time step continuity errors : sum local = 0.000175082, global = 6.81284e-17, cumulative = 4.88149e-16
Pressure gradient source: uncorrected Ubar = 1.00001, pressure gradient = 5.87072
smoothSolver:  Solving for omega, Initial residual = 0.00477633, Final residual = 0.000353792, No Iterations 6
smoothSolver:  Solving for k, Initial residual = 0.00504671, Final residual = 0.000401433, No Iterations 6
ExecutionTime = 0.209243 s  ClockTime = 0 s

Time = 69s

smoothSolver:  Solving for Ux, Initial residual = 0.00389709, Final residual = 0.000360773, No Iterations 5
smoothSolver:  Solving for Uy, Initial residual = 0.0272692, Final residual = 0.00210182, No Iterations 6
Pressure gradient source: uncorrected Ubar = 1.00061, pressure gradient = 4.77602
GAMG:  Solving for p, Initial residual = 0.00155748, Final residual = 0.000154177, No Iterations 17
time step continuity errors : sum local = 0.000170271, global = 6.99988e-18, cumulative = 4.95148e-16
Pressure gradient source: uncorrected Ubar = 1.00001, pressure gradient = 5.86105
smoothSolver:  Solving for omega, Initial residual = 0.00463402, Final residual = 0.000346263, No Iterations 6
smoothSolver:  Solving for k, Initial residual = 0.00501161, Final residual = 0.000397936, No Iterations 6
ExecutionTime = 0.212526 s  ClockTime = 0 s

Time = 70s

smoothSolver:  Solving for Ux, Initial residual = 0.00385969, Final residual = 0.000358015, No Iterations 5
smoothSolver:  Solving for Uy, Initial residual = 0.0268419, Final residual = 0.00207488, No Iterations 6
Pressure gradient source: uncorrected Ubar = 1.00062, pressure gradient = 4.71
GAMG:  Solving for p, Initial residual = 0.00177827, Final residual = 0.000162395, No Iterations 17
time step continuity errors : sum local = 0.000160623, global = 3.50875e-17, cumulative = 5.30236e-16
Pressure gradient source: uncorrected Ubar = 1.00001, pressure gradient = 5.84682
smoothSolver:  Solving for omega, Initial residual = 0.00448627, Final residual = 0.00033839, No Iterations 6
smoothSolver:  Solving for k, Initial residual = 0.0050003, Final residual = 0.000395981, No Iterations 6
ExecutionTime = 0.215767 s  ClockTime = 0 s

Time = 71s

smoothSolver:  Solving for Ux, Initial residual = 0.00382304, Final residual = 0.000355208, No Iterations 5
smoothSolver:  Solving for Uy, Initial residual = 0.0264153, Final residual = 0.00204072, No Iterations 6
Pressure gradient source: uncorrected Ubar = 1.00063, pressure gradient = 4.66321
GAMG:  Solving for p, Initial residual = 0.00206832, Final residual = 0.000201782, No Iterations 15
time step continuity errors : sum local = 0.000174054, global = 2.61563e-18, cumulative = 5.32852e-16
Pressure gradient source: uncorrected Ubar = 1.00001, pressure gradient = 5.83278
smoothSolver:  Solving for omega, Initial residual = 0.00439113, Final residual = 0.000336276, No Iterations 6
smoothSolver:  Solving for k, Initial residual = 0.00499833, Final residual = 0.00039653, No Iterations 6
ExecutionTime = 0.218863 s  ClockTime = 0 s

Time = 72s

smoothSolver:  Solving for Ux, Initial residual = 0.00378692, Final residual = 0.000352552, No Iterations 5
smoothSolver:  Solving for Uy, Initial residual = 0.0258535, Final residual = 0.00200312, No Iterations 6
Pressure gradient source: uncorrected Ubar = 1.00062, pressure gradient = 4.62081
GAMG:  Solving for p, Initial residual = 0.00242797, Final residual = 0.000221917, No Iterations 15
time step continuity errors : sum local = 0.000170149, global = 1.67645e-17, cumulative = 5.49616e-16
Pressure gradient source: uncorrected Ubar = 1.00001, pressure gradient = 5.82028
smoothSolver:  Solving for omega, Initial residual = 0.00424631, Final residual = 0.000327515, No Iterations 6
smoothSolver:  Solving for k, Initial residual = 0.00499327, Final residual = 0.000395073, No Iterations 6
ExecutionTime = 0.221939 s  ClockTime = 0 s

Time = 73s

smoothSolver:  Solving for Ux, Initial residual = 0.00375239, Final residual = 0.000349922, No Iterations 5
smoothSolver:  Solving for Uy, Initial residual = 0.0253697, Final residual = 0.00196648, No Iterations 6
Pressure gradient source: uncorrected Ubar = 1.00061, pressure gradient = 4.59525
GAMG:  Solving for p, Initial residual = 0.00294965, Final residual = 0.000285876, No Iterations 13
time step continuity errors : sum local = 0.000189413, global = -2.56481e-17, cumulative = 5.23968e-16
Pressure gradient source: uncorrected Ubar = 1, pressure gradient = 5.81211
smoothSolver:  Solving for omega, Initial residual = 0.00408585, Final residual = 0.000317561, No Iterations 6
smoothSolver:  Solving for k, Initial residual = 0.00499295, Final residual = 0.000394764, No Iterations 6
ExecutionTime = 0.225224 s  ClockTime = 0 s

Time = 74s

smoothSolver:  Solving for Ux, Initial residual = 0.00371942, Final residual = 0.000347369, No Iterations 5
smoothSolver:  Solving for Uy, Initial residual = 0.0248452, Final residual = 0.00193058, No Iterations 6
Pressure gradient source: uncorrected Ubar = 1.00063, pressure gradient = 4.5166
GAMG:  Solving for p, Initial residual = 0.0035968, Final residual = 0.000315353, No Iterations 13
time step continuity errors : sum local = 0.000185795, global = 7.46742e-18, cumulative = 5.31435e-16
Pressure gradient source: uncorrected Ubar = 1.00001, pressure gradient = 5.80056
smoothSolver:  Solving for omega, Initial residual = 0.00394371, Final residual = 0.000311516, No Iterations 6
smoothSolver:  Solving for k, Initial residual = 0.00500005, Final residual = 0.000394357, No Iterations 6
ExecutionTime = 0.228297 s  ClockTime = 0 s

Time = 75s

smoothSolver:  Solving for Ux, Initial residual = 0.00368743, Final residual = 0.000344817, No Iterations 5
smoothSolver:  Solving for Uy, Initial residual = 0.0243019, Final residual = 0.00189278, No Iterations 6
Pressure gradient source: uncorrected Ubar = 1.00063, pressure gradient = 4.46381
GAMG:  Solving for p, Initial residual = 0.00442642, Final residual = 0.000414036, No Iterations 11
time step continuity errors : sum local = 0.000207313, global = -4.64581e-17, cumulative = 4.84977e-16
Pressure gradient source: uncorrected Ubar = 1, pressure gradient = 5.79121
smoothSolver:  Solving for omega, Initial residual = 0.00401785, Final residual = 0.000311292, No Iterations 6
smoothSolver:  Solving for k, Initial residual = 0.00502023, Final residual = 0.00039537, No Iterations 6
ExecutionTime = 0.231199 s  ClockTime = 0 s

Time = 76s

smoothSolver:  Solving for Ux, Initial residual = 0.00365508, Final residual = 0.000342167, No Iterations 5
smoothSolver:  Solving for Uy, Initial residual = 0.023786, Final residual = 0.00185498, No Iterations 6
Pressure gradient source: uncorrected Ubar = 1.0005, pressure gradient = 4.69626
GAMG:  Solving for p, Initial residual = 0.00530307, Final residual = 0.000464594, No Iterations 7
time step continuity errors : sum local = 0.000179564, global = 6.00851e-17, cumulative = 5.45062e-16
Pressure gradient source: uncorrected Ubar = 0.999985, pressure gradient = 5.82436
smoothSolver:  Solving for omega, Initial residual = 0.00992328, Final residual = 0.000988172, No Iterations 3
smoothSolver:  Solving for k, Initial residual = 0.00536343, Final residual = 0.000395148, No Iterations 6
ExecutionTime = 0.233914 s  ClockTime = 0 s

Time = 77s

smoothSolver:  Solving for Ux, Initial residual = 0.00366081, Final residual = 0.000341766, No Iterations 5
smoothSolver:  Solving for Uy, Initial residual = 0.0277487, Final residual = 0.00197587, No Iterations 6
Pressure gradient source: uncorrected Ubar = 0.999569, pressure gradient = 6.73103
GAMG:  Solving for p, Initial residual = 0.0828902, Final residual = 0.00513765, No Iterations 2
time step continuity errors : sum local = 0.00260594, global = -2.14978e-17, cumulative = 5.23564e-16
Pressure gradient source: uncorrected Ubar = 0.999896, pressure gradient = 6.04375
smoothSolver:  Solving for omega, Initial residual = 0.0212776, Final residual = 0.0015374, No Iterations 2
smoothSolver:  Solving for k, Initial residual = 0.00540845, Final residual = 0.00039773, No Iterations 6
ExecutionTime = 0.23638 s  ClockTime = 0 s

Time = 78s

smoothSolver:  Solving for Ux, Initial residual = 0.00364158, Final residual = 0.000341466, No Iterations 5
smoothSolver:  Solving for Uy, Initial residual = 0.0316902, Final residual = 0.00214444, No Iterations 6
Pressure gradient source: uncorrected Ubar = 1.00204, pressure gradient = 1.90889
GAMG:  Solving for p, Initial residual = 0.0317247, Final residual = 0.00301775, No Iterations 3
time step continuity errors : sum local = 0.00197565, global = -2.28904e-17, cumulative = 5.00674e-16
Pressure gradient source: uncorrected Ubar = 1.00033, pressure gradient = 5.37615
smoothSolver:  Solving for omega, Initial residual = 0.0230689, Final residual = 0.00172584, No Iterations 2
smoothSolver:  Solving for k, Initial residual = 0.00496862, Final residual = 0.000401343, No Iterations 6
ExecutionTime = 0.238893 s  ClockTime = 0 s

Time = 79s

smoothSolver:  Solving for Ux, Initial residual = 0.00359524, Final residual = 0.000341516, No Iterations 5
smoothSolver:  Solving for Uy, Initial residual = 0.0243435, Final residual = 0.00174784, No Iterations 6
Pressure gradient source: uncorrected Ubar = 1.00218, pressure gradient = 0.7849
GAMG:  Solving for p, Initial residual = 0.0476398, Final residual = 0.00107006, No Iterations 3
time step continuity errors : sum local = 0.000259373, global = -8.28049e-18, cumulative = 4.92394e-16
Pressure gradient source: uncorrected Ubar = 1.00029, pressure gradient = 4.77462
smoothSolver:  Solving for omega, Initial residual = 0.0103841, Final residual = 0.000740768, No Iterations 4
smoothSolver:  Solving for k, Initial residual = 0.00499511, Final residual = 0.000403355, No Iterations 6
ExecutionTime = 0.241399 s  ClockTime = 0 s

Time = 80s

smoothSolver:  Solving for Ux, Initial residual = 0.00358037, Final residual = 0.000341538, No Iterations 5
smoothSolver:  Solving for Uy, Initial residual = 0.0270707, Final residual = 0.00191986, No Iterations 6
Pressure gradient source: uncorrected Ubar = 0.999876, pressure gradient = 5.04166
GAMG:  Solving for p, Initial residual = 0.0255164, Final residual = 0.0015557, No Iterations 3
time step continuity errors : sum local = 0.000725863, global = 6.69295e-17, cumulative = 5.59323e-16
Pressure gradient source: uncorrected Ubar = 0.999895, pressure gradient = 5.00009
smoothSolver:  Solving for omega, Initial residual = 0.00673573, Final residual = 0.000469583, No Iterations 5
smoothSolver:  Solving for k, Initial residual = 0.00500741, Final residual = 0.000404076, No Iterations 6
ExecutionTime = 0.244028 s  ClockTime = 0 s

Time = 81s

smoothSolver:  Solving for Ux, Initial residual = 0.00354761, Final residual = 0.000338665, No Iterations 5
smoothSolver:  Solving for Uy, Initial residual = 0.0257472, Final residual = 0.00185707, No Iterations 6
Pressure gradient source: uncorrected Ubar = 1.00086, pressure gradient = 3.09627
GAMG:  Solving for p, Initial residual = 0.0138074, Final residual = 0.00125585, No Iterations 7
time step continuity errors : sum local = 0.000805428, global = 6.66784e-18, cumulative = 5.65991e-16
Pressure gradient source: uncorrected Ubar = 1.00005, pressure gradient = 4.8841
smoothSolver:  Solving for omega, Initial residual = 0.00490634, Final residual = 0.000461408, No Iterations 5
smoothSolver:  Solving for k, Initial residual = 0.00500614, Final residual = 0.000403135, No Iterations 6
ExecutionTime = 0.246796 s  ClockTime = 0 s

Time = 82s

smoothSolver:  Solving for Ux, Initial residual = 0.00352217, Final residual = 0.000337034, No Iterations 5
smoothSolver:  Solving for Uy, Initial residual = 0.0224984, Final residual = 0.00173801, No Iterations 6
Pressure gradient source: uncorrected Ubar = 1.00035, pressure gradient = 4.0843
GAMG:  Solving for p, Initial residual = 0.0139734, Final residual = 0.00117529, No Iterations 10
time step continuity errors : sum local = 0.00058216, global = 2.32832e-17, cumulative = 5.89274e-16
Pressure gradient source: uncorrected Ubar = 0.999971, pressure gradient = 4.95107
smoothSolver:  Solving for omega, Initial residual = 0.0044272, Final residual = 0.000298319, No Iterations 6
smoothSolver:  Solving for k, Initial residual = 0.00502188, Final residual = 0.000403737, No Iterations 6
ExecutionTime = 0.249645 s  ClockTime = 0 s

Time = 83s

smoothSolver:  Solving for Ux, Initial residual = 0.00349521, Final residual = 0.000334608, No Iterations 5
smoothSolver:  Solving for Uy, Initial residual = 0.0186293, Final residual = 0.00140635, No Iterations 6
Pressure gradient source: uncorrected Ubar = 1.00054, pressure gradient = 3.66825
GAMG:  Solving for p, Initial residual = 0.0323051, Final residual = 0.00314292, No Iterations 8
time step continuity errors : sum local = 0.000480966, global = -7.02688e-18, cumulative = 5.82247e-16
Pressure gradient source: uncorrected Ubar = 1, pressure gradient = 4.95087
smoothSolver:  Solving for omega, Initial residual = 0.00378216, Final residual = 0.000290567, No Iterations 6
smoothSolver:  Solving for k, Initial residual = 0.0050457, Final residual = 0.000404873, No Iterations 6
ExecutionTime = 0.252421 s  ClockTime = 0 s

Time = 84s

smoothSolver:  Solving for Ux, Initial residual = 0.00346967, Final residual = 0.000332505, No Iterations 5
smoothSolver:  Solving for Uy, Initial residual = 0.017246, Final residual = 0.00130521, No Iterations 6
Pressure gradient source: uncorrected Ubar = 1.0005, pressure gradient = 3.74545
GAMG:  Solving for p, Initial residual = 0.0461775, Final residual = 0.00242599, No Iterations 4
time step continuity errors : sum local = 0.000205967, global = 2.22934e-18, cumulative = 5.84477e-16
Pressure gradient source: uncorrected Ubar = 0.999992, pressure gradient = 4.97037
smoothSolver:  Solving for omega, Initial residual = 0.00375189, Final residual = 0.000286375, No Iterations 6
smoothSolver:  Solving for k, Initial residual = 0.0050639, Final residual = 0.000404176, No Iterations 6
ExecutionTime = 0.255003 s  ClockTime = 0 s

Time = 85s

smoothSolver:  Solving for Ux, Initial residual = 0.00344351, Final residual = 0.00033047, No Iterations 5
smoothSolver:  Solving for Uy, Initial residual = 0.0174081, Final residual = 0.00132187, No Iterations 6
Pressure gradient source: uncorrected Ubar = 1.0002, pressure gradient = 4.46641
GAMG:  Solving for p, Initial residual = 0.0155685, Final residual = 0.00143624, No Iterations 5
time step continuity errors : sum local = 0.00022901, global = -3.75676e-17, cumulative = 5.46909e-16
Pressure gradient source: uncorrected Ubar = 0.999947, pressure gradient = 5.10251
smoothSolver:  Solving for omega, Initial residual = 0.0108867, Final residual = 0.00090577, No Iterations 3
smoothSolver:  Solving for k, Initial residual = 0.00543428, Final residual = 0.000403922, No Iterations 6
ExecutionTime = 0.25759 s  ClockTime = 0 s

Time = 86s

smoothSolver:  Solving for Ux, Initial residual = 0.00345139, Final residual = 0.000329994, No Iterations 5
smoothSolver:  Solving for Uy, Initial residual = 0.0281335, Final residual = 0.00194299, No Iterations 6
Pressure gradient source: uncorrected Ubar = 0.999335, pressure gradient = 6.68932
GAMG:  Solving for p, Initial residual = 0.778247, Final residual = 0.0496149, No Iterations 2
time step continuity errors : sum local = 0.00266678, global = 7.00845e-18, cumulative = 5.53917e-16
Pressure gradient source: uncorrected Ubar = 0.999867, pressure gradient = 5.41983
smoothSolver:  Solving for omega, Initial residual = 0.0224883, Final residual = 0.00138953, No Iterations 2
smoothSolver:  Solving for k, Initial residual = 0.00542595, Final residual = 0.00040742, No Iterations 6
ExecutionTime = 0.260021 s  ClockTime = 0 s

Time = 87s

smoothSolver:  Solving for Ux, Initial residual = 0.00343227, Final residual = 0.000329323, No Iterations 5
smoothSolver:  Solving for Uy, Initial residual = 0.0330984, Final residual = 0.00219565, No Iterations 6
Pressure gradient source: uncorrected Ubar = 1.00212, pressure gradient = 0.556232
GAMG:  Solving for p, Initial residual = 0.081903, Final residual = 0.00545067, No Iterations 5
time step continuity errors : sum local = 0.00149866, global = 2.1954e-18, cumulative = 5.56113e-16
Pressure gradient source: uncorrected Ubar = 1.00037, pressure gradient = 4.57997
smoothSolver:  Solving for omega, Initial residual = 0.0217766, Final residual = 0.00161039, No Iterations 2
smoothSolver:  Solving for k, Initial residual = 0.00499689, Final residual = 0.000410392, No Iterations 6
ExecutionTime = 0.262597 s  ClockTime = 0 s

Time = 88s

smoothSolver:  Solving for Ux, Initial residual = 0.00340036, Final residual = 0.000330545, No Iterations 5
smoothSolver:  Solving for Uy, Initial residual = 0.0274257, Final residual = 0.00205183, No Iterations 6
Pressure gradient source: uncorrected Ubar = 1.00201, pressure gradient = -0.192505
GAMG:  Solving for p, Initial residual = 0.0312054, Final residual = 0.00136122, No Iterations 3
time step continuity errors : sum local = 0.000597104, global = -3.91668e-17, cumulative = 5.16946e-16
Pressure gradient source: uncorrected Ubar = 1.00027, pressure gradient = 3.93254
smoothSolver:  Solving for omega, Initial residual = 0.00998796, Final residual = 0.0006727, No Iterations 4
smoothSolver:  Solving for k, Initial residual = 0.00502483, Final residual = 0.000412344, No Iterations 6
ExecutionTime = 0.265115 s  ClockTime = 0 s

Time = 89s

smoothSolver:  Solving for Ux, Initial residual = 0.00339717, Final residual = 0.000331179, No Iterations 5
smoothSolver:  Solving for Uy, Initial residual = 0.0279378, Final residual = 0.00214302, No Iterations 6
Pressure gradient source: uncorrected Ubar = 0.999865, pressure gradient = 4.26123
GAMG:  Solving for p, Initial residual = 0.20587, Final residual = 0.00724011, No Iterations 3
time step continuity errors : sum local = 0.000335619, global = 3.11438e-17, cumulative = 5.4809e-16
Pressure gradient source: uncorrected Ubar = 0.999896, pressure gradient = 4.18542
smoothSolver:  Solving for omega, Initial residual = 0.00628198, Final residual = 0.000425626, No Iterations 5
[...]
smoothSolver:  Solving for omega, Initial residual = 7.33327e-06, Final residual = 7.33327e-06, No Iterations 0
smoothSolver:  Solving for k, Initial residual = 2.17152e-05, Final residual = 8.95918e-06, No Iterations 2
ExecutionTime = 10.5615 s  ClockTime = 10 s

Time = 4065s

smoothSolver:  Solving for Ux, Initial residual = 4.56146e-06, Final residual = 4.56146e-06, No Iterations 0
smoothSolver:  Solving for Uy, Initial residual = 0.000145326, Final residual = 1.19529e-05, No Iterations 5
Pressure gradient source: uncorrected Ubar = 1, pressure gradient = 0.00361849
GAMG:  Solving for p, Initial residual = 1.34592e-05, Final residual = 1.14564e-06, No Iterations 10
time step continuity errors : sum local = 3.26314e-11, global = 7.98659e-19, cumulative = 6.78058e-16
Pressure gradient source: uncorrected Ubar = 1, pressure gradient = 0.00361846
smoothSolver:  Solving for omega, Initial residual = 7.33338e-06, Final residual = 7.33338e-06, No Iterations 0
smoothSolver:  Solving for k, Initial residual = 2.16942e-05, Final residual = 8.9515e-06, No Iterations 2
ExecutionTime = 10.5641 s  ClockTime = 10 s

Time = 4066s

smoothSolver:  Solving for Ux, Initial residual = 4.53767e-06, Final residual = 4.53767e-06, No Iterations 0
smoothSolver:  Solving for Uy, Initial residual = 0.000144341, Final residual = 1.17345e-05, No Iterations 5
Pressure gradient source: uncorrected Ubar = 1, pressure gradient = 0.00361846
GAMG:  Solving for p, Initial residual = 1.32929e-05, Final residual = 1.3112e-06, No Iterations 8
time step continuity errors : sum local = 3.67141e-11, global = -3.3329e-18, cumulative = 6.74725e-16
Pressure gradient source: uncorrected Ubar = 1, pressure gradient = 0.00361842
smoothSolver:  Solving for omega, Initial residual = 7.33349e-06, Final residual = 7.33349e-06, No Iterations 0
smoothSolver:  Solving for k, Initial residual = 2.16821e-05, Final residual = 8.94152e-06, No Iterations 2
ExecutionTime = 10.5667 s  ClockTime = 10 s

Time = 4067s

smoothSolver:  Solving for Ux, Initial residual = 4.51387e-06, Final residual = 4.51387e-06, No Iterations 0
smoothSolver:  Solving for Uy, Initial residual = 0.000142533, Final residual = 1.15768e-05, No Iterations 5
Pressure gradient source: uncorrected Ubar = 1, pressure gradient = 0.00361842
GAMG:  Solving for p, Initial residual = 1.40993e-05, Final residual = 1.36299e-06, No Iterations 8
time step continuity errors : sum local = 3.7992e-11, global = 2.87199e-18, cumulative = 6.77597e-16
Pressure gradient source: uncorrected Ubar = 1, pressure gradient = 0.00361839
smoothSolver:  Solving for omega, Initial residual = 7.33361e-06, Final residual = 7.33361e-06, No Iterations 0
smoothSolver:  Solving for k, Initial residual = 2.16731e-05, Final residual = 8.94656e-06, No Iterations 2
ExecutionTime = 10.5694 s  ClockTime = 10 s

Time = 4068s

smoothSolver:  Solving for Ux, Initial residual = 4.49063e-06, Final residual = 4.49063e-06, No Iterations 0
smoothSolver:  Solving for Uy, Initial residual = 0.000138329, Final residual = 1.13787e-05, No Iterations 5
Pressure gradient source: uncorrected Ubar = 1, pressure gradient = 0.00361839
GAMG:  Solving for p, Initial residual = 1.28322e-05, Final residual = 1.10094e-06, No Iterations 10
time step continuity errors : sum local = 3.16245e-11, global = 2.8454e-18, cumulative = 6.80442e-16
Pressure gradient source: uncorrected Ubar = 1, pressure gradient = 0.00361836
smoothSolver:  Solving for omega, Initial residual = 7.33372e-06, Final residual = 7.33372e-06, No Iterations 0
smoothSolver:  Solving for k, Initial residual = 2.16544e-05, Final residual = 8.92996e-06, No Iterations 2
ExecutionTime = 10.572 s  ClockTime = 10 s

Time = 4069s

smoothSolver:  Solving for Ux, Initial residual = 4.46772e-06, Final residual = 4.46772e-06, No Iterations 0
smoothSolver:  Solving for Uy, Initial residual = 0.000137792, Final residual = 1.11829e-05, No Iterations 5
Pressure gradient source: uncorrected Ubar = 1, pressure gradient = 0.00361836
GAMG:  Solving for p, Initial residual = 1.35593e-05, Final residual = 1.29819e-06, No Iterations 8
time step continuity errors : sum local = 3.60948e-11, global = -4.94445e-18, cumulative = 6.75498e-16
Pressure gradient source: uncorrected Ubar = 1, pressure gradient = 0.00361833
smoothSolver:  Solving for omega, Initial residual = 7.33383e-06, Final residual = 7.33383e-06, No Iterations 0
smoothSolver:  Solving for k, Initial residual = 2.16389e-05, Final residual = 8.92847e-06, No Iterations 2
ExecutionTime = 10.5747 s  ClockTime = 10 s

Time = 4070s

smoothSolver:  Solving for Ux, Initial residual = 4.44477e-06, Final residual = 4.44477e-06, No Iterations 0
smoothSolver:  Solving for Uy, Initial residual = 0.000135612, Final residual = 1.09566e-05, No Iterations 5
Pressure gradient source: uncorrected Ubar = 1, pressure gradient = 0.00361833
GAMG:  Solving for p, Initial residual = 1.33276e-05, Final residual = 1.2778e-06, No Iterations 8
time step continuity errors : sum local = 3.57406e-11, global = -3.67308e-18, cumulative = 6.71825e-16
Pressure gradient source: uncorrected Ubar = 1, pressure gradient = 0.00361829
smoothSolver:  Solving for omega, Initial residual = 7.33395e-06, Final residual = 7.33395e-06, No Iterations 0
smoothSolver:  Solving for k, Initial residual = 2.1632e-05, Final residual = 8.92444e-06, No Iterations 2
ExecutionTime = 10.5773 s  ClockTime = 10 s

Time = 4071s

smoothSolver:  Solving for Ux, Initial residual = 4.42182e-06, Final residual = 4.42182e-06, No Iterations 0
smoothSolver:  Solving for Uy, Initial residual = 0.000132223, Final residual = 1.09172e-05, No Iterations 5
Pressure gradient source: uncorrected Ubar = 1, pressure gradient = 0.00361829
GAMG:  Solving for p, Initial residual = 1.32502e-05, Final residual = 1.31379e-06, No Iterations 8
time step continuity errors : sum local = 3.66209e-11, global = 3.0622e-19, cumulative = 6.72131e-16
Pressure gradient source: uncorrected Ubar = 1, pressure gradient = 0.00361826
smoothSolver:  Solving for omega, Initial residual = 7.33406e-06, Final residual = 7.33406e-06, No Iterations 0
smoothSolver:  Solving for k, Initial residual = 2.16101e-05, Final residual = 8.91648e-06, No Iterations 2
ExecutionTime = 10.58 s  ClockTime = 10 s

Time = 4072s

smoothSolver:  Solving for Ux, Initial residual = 4.39883e-06, Final residual = 4.39883e-06, No Iterations 0
smoothSolver:  Solving for Uy, Initial residual = 0.000130876, Final residual = 1.06433e-05, No Iterations 5
Pressure gradient source: uncorrected Ubar = 1, pressure gradient = 0.00361826
GAMG:  Solving for p, Initial residual = 1.29749e-05, Final residual = 1.27218e-06, No Iterations 8
time step continuity errors : sum local = 3.57136e-11, global = -2.48112e-18, cumulative = 6.6965e-16
Pressure gradient source: uncorrected Ubar = 1, pressure gradient = 0.00361823
smoothSolver:  Solving for omega, Initial residual = 7.33418e-06, Final residual = 7.33418e-06, No Iterations 0
smoothSolver:  Solving for k, Initial residual = 2.15966e-05, Final residual = 8.90582e-06, No Iterations 2
ExecutionTime = 10.5826 s  ClockTime = 10 s

Time = 4073s

smoothSolver:  Solving for Ux, Initial residual = 4.37584e-06, Final residual = 4.37584e-06, No Iterations 0
smoothSolver:  Solving for Uy, Initial residual = 0.000129483, Final residual = 1.05025e-05, No Iterations 5
Pressure gradient source: uncorrected Ubar = 1, pressure gradient = 0.00361823
GAMG:  Solving for p, Initial residual = 1.37e-05, Final residual = 1.27197e-06, No Iterations 8
time step continuity errors : sum local = 3.5436e-11, global = -6.13874e-18, cumulative = 6.63511e-16
Pressure gradient source: uncorrected Ubar = 1, pressure gradient = 0.00361819
smoothSolver:  Solving for omega, Initial residual = 7.3343e-06, Final residual = 7.3343e-06, No Iterations 0
smoothSolver:  Solving for k, Initial residual = 2.15866e-05, Final residual = 8.9105e-06, No Iterations 2
ExecutionTime = 10.5852 s  ClockTime = 10 s

Time = 4074s

smoothSolver:  Solving for Ux, Initial residual = 4.3529e-06, Final residual = 4.3529e-06, No Iterations 0
smoothSolver:  Solving for Uy, Initial residual = 0.000125982, Final residual = 1.04548e-05, No Iterations 5
Pressure gradient source: uncorrected Ubar = 1, pressure gradient = 0.00361819
GAMG:  Solving for p, Initial residual = 1.25439e-05, Final residual = 1.2353e-06, No Iterations 8
time step continuity errors : sum local = 3.4619e-11, global = -7.64572e-18, cumulative = 6.55865e-16
Pressure gradient source: uncorrected Ubar = 1, pressure gradient = 0.00361816
smoothSolver:  Solving for omega, Initial residual = 7.33442e-06, Final residual = 7.33442e-06, No Iterations 0
smoothSolver:  Solving for k, Initial residual = 2.15665e-05, Final residual = 8.89329e-06, No Iterations 2
ExecutionTime = 10.5878 s  ClockTime = 10 s

Time = 4075s

smoothSolver:  Solving for Ux, Initial residual = 4.33e-06, Final residual = 4.33e-06, No Iterations 0
smoothSolver:  Solving for Uy, Initial residual = 0.000124928, Final residual = 1.0254e-05, No Iterations 5
Pressure gradient source: uncorrected Ubar = 1, pressure gradient = 0.00361816
GAMG:  Solving for p, Initial residual = 1.33097e-05, Final residual = 1.22898e-06, No Iterations 8
time step continuity errors : sum local = 3.4215e-11, global = 1.72728e-18, cumulative = 6.57593e-16
Pressure gradient source: uncorrected Ubar = 1, pressure gradient = 0.00361813
smoothSolver:  Solving for omega, Initial residual = 7.33454e-06, Final residual = 7.33454e-06, No Iterations 0
smoothSolver:  Solving for k, Initial residual = 2.15501e-05, Final residual = 8.89145e-06, No Iterations 2
ExecutionTime = 10.5905 s  ClockTime = 10 s

Time = 4076s

smoothSolver:  Solving for Ux, Initial residual = 4.30714e-06, Final residual = 4.30714e-06, No Iterations 0
smoothSolver:  Solving for Uy, Initial residual = 0.000122868, Final residual = 1.00222e-05, No Iterations 5
Pressure gradient source: uncorrected Ubar = 1, pressure gradient = 0.00361813
GAMG:  Solving for p, Initial residual = 1.2899e-05, Final residual = 1.16677e-06, No Iterations 8
time step continuity errors : sum local = 3.26078e-11, global = 3.40156e-18, cumulative = 6.60994e-16
Pressure gradient source: uncorrected Ubar = 1, pressure gradient = 0.0036181
smoothSolver:  Solving for omega, Initial residual = 7.33466e-06, Final residual = 7.33466e-06, No Iterations 0
smoothSolver:  Solving for k, Initial residual = 2.15418e-05, Final residual = 8.88677e-06, No Iterations 2
ExecutionTime = 10.5931 s  ClockTime = 10 s

Time = 4077s

smoothSolver:  Solving for Ux, Initial residual = 4.28426e-06, Final residual = 4.28426e-06, No Iterations 0
smoothSolver:  Solving for Uy, Initial residual = 0.000120545, Final residual = 1.0116e-05, No Iterations 5
Pressure gradient source: uncorrected Ubar = 1, pressure gradient = 0.0036181
GAMG:  Solving for p, Initial residual = 1.29652e-05, Final residual = 1.17485e-06, No Iterations 8
time step continuity errors : sum local = 3.26006e-11, global = 2.13598e-18, cumulative = 6.6313e-16
Pressure gradient source: uncorrected Ubar = 1, pressure gradient = 0.00361806
smoothSolver:  Solving for omega, Initial residual = 7.33478e-06, Final residual = 7.33478e-06, No Iterations 0
smoothSolver:  Solving for k, Initial residual = 2.15189e-05, Final residual = 8.87847e-06, No Iterations 2
ExecutionTime = 10.5956 s  ClockTime = 10 s

Time = 4078s

smoothSolver:  Solving for Ux, Initial residual = 4.26136e-06, Final residual = 4.26136e-06, No Iterations 0
smoothSolver:  Solving for Uy, Initial residual = 0.00011838, Final residual = 9.83292e-06, No Iterations 5
Pressure gradient source: uncorrected Ubar = 1, pressure gradient = 0.00361806
GAMG:  Solving for p, Initial residual = 1.25095e-05, Final residual = 1.11382e-06, No Iterations 8
time step continuity errors : sum local = 3.1106e-11, global = -4.22514e-18, cumulative = 6.58905e-16
Pressure gradient source: uncorrected Ubar = 1, pressure gradient = 0.00361803
smoothSolver:  Solving for omega, Initial residual = 7.3349e-06, Final residual = 7.3349e-06, No Iterations 0
smoothSolver:  Solving for k, Initial residual = 2.15041e-05, Final residual = 8.86723e-06, No Iterations 2
ExecutionTime = 10.5983 s  ClockTime = 10 s

Time = 4079s

smoothSolver:  Solving for Ux, Initial residual = 4.23846e-06, Final residual = 4.23846e-06, No Iterations 0
smoothSolver:  Solving for Uy, Initial residual = 0.00011711, Final residual = 9.70483e-06, No Iterations 5
Pressure gradient source: uncorrected Ubar = 1, pressure gradient = 0.00361803
GAMG:  Solving for p, Initial residual = 1.32568e-05, Final residual = 1.30414e-06, No Iterations 6
time step continuity errors : sum local = 3.44285e-11, global = 2.67216e-19, cumulative = 6.59172e-16
Pressure gradient source: uncorrected Ubar = 1, pressure gradient = 0.003618
smoothSolver:  Solving for omega, Initial residual = 7.33502e-06, Final residual = 7.33502e-06, No Iterations 0
smoothSolver:  Solving for k, Initial residual = 2.14886e-05, Final residual = 8.86406e-06, No Iterations 2
ExecutionTime = 10.6008 s  ClockTime = 10 s

Time = 4080s

smoothSolver:  Solving for Ux, Initial residual = 4.21631e-06, Final residual = 4.21631e-06, No Iterations 0
smoothSolver:  Solving for Uy, Initial residual = 0.000110192, Final residual = 9.28553e-06, No Iterations 5
Pressure gradient source: uncorrected Ubar = 1, pressure gradient = 0.003618
GAMG:  Solving for p, Initial residual = 1.32755e-05, Final residual = 1.07742e-06, No Iterations 8
time step continuity errors : sum local = 2.97225e-11, global = -1.64511e-18, cumulative = 6.57527e-16
Pressure gradient source: uncorrected Ubar = 1, pressure gradient = 0.00361797
smoothSolver:  Solving for omega, Initial residual = 7.33515e-06, Final residual = 7.33515e-06, No Iterations 0
smoothSolver:  Solving for k, Initial residual = 2.14718e-05, Final residual = 8.85368e-06, No Iterations 2
ExecutionTime = 10.6034 s  ClockTime = 10 s

Time = 4081s

smoothSolver:  Solving for Ux, Initial residual = 4.19431e-06, Final residual = 4.19431e-06, No Iterations 0
smoothSolver:  Solving for Uy, Initial residual = 0.000110695, Final residual = 9.18516e-06, No Iterations 5
Pressure gradient source: uncorrected Ubar = 1, pressure gradient = 0.00361797
GAMG:  Solving for p, Initial residual = 1.29979e-05, Final residual = 1.26191e-06, No Iterations 6
time step continuity errors : sum local = 3.30171e-11, global = 6.24047e-18, cumulative = 6.63768e-16
Pressure gradient source: uncorrected Ubar = 1, pressure gradient = 0.00361793
smoothSolver:  Solving for omega, Initial residual = 7.33527e-06, Final residual = 7.33527e-06, No Iterations 0
smoothSolver:  Solving for k, Initial residual = 2.14543e-05, Final residual = 8.85138e-06, No Iterations 2
ExecutionTime = 10.6059 s  ClockTime = 10 s

Time = 4082s

smoothSolver:  Solving for Ux, Initial residual = 4.17229e-06, Final residual = 4.17229e-06, No Iterations 0
smoothSolver:  Solving for Uy, Initial residual = 0.000110166, Final residual = 9.1413e-06, No Iterations 5
Pressure gradient source: uncorrected Ubar = 1, pressure gradient = 0.00361793
GAMG:  Solving for p, Initial residual = 1.24789e-05, Final residual = 1.22097e-06, No Iterations 6
time step continuity errors : sum local = 3.18987e-11, global = 3.34862e-18, cumulative = 6.67116e-16
Pressure gradient source: uncorrected Ubar = 1, pressure gradient = 0.0036179
smoothSolver:  Solving for omega, Initial residual = 7.3354e-06, Final residual = 7.3354e-06, No Iterations 0
smoothSolver:  Solving for k, Initial residual = 2.14387e-05, Final residual = 8.83985e-06, No Iterations 2
ExecutionTime = 10.6084 s  ClockTime = 10 s

Time = 4083s

smoothSolver:  Solving for Ux, Initial residual = 4.15025e-06, Final residual = 4.15025e-06, No Iterations 0
smoothSolver:  Solving for Uy, Initial residual = 0.000110018, Final residual = 9.22238e-06, No Iterations 5
Pressure gradient source: uncorrected Ubar = 1, pressure gradient = 0.0036179
GAMG:  Solving for p, Initial residual = 1.32454e-05, Final residual = 1.21851e-06, No Iterations 6
time step continuity errors : sum local = 3.14919e-11, global = 8.00641e-19, cumulative = 6.67917e-16
Pressure gradient source: uncorrected Ubar = 1, pressure gradient = 0.00361787
smoothSolver:  Solving for omega, Initial residual = 7.33552e-06, Final residual = 7.33552e-06, No Iterations 0
smoothSolver:  Solving for k, Initial residual = 2.1427e-05, Final residual = 8.84385e-06, No Iterations 2
ExecutionTime = 10.6109 s  ClockTime = 10 s

Time = 4084s

smoothSolver:  Solving for Ux, Initial residual = 4.12819e-06, Final residual = 4.12819e-06, No Iterations 0
smoothSolver:  Solving for Uy, Initial residual = 0.000108526, Final residual = 9.36239e-06, No Iterations 5
Pressure gradient source: uncorrected Ubar = 1, pressure gradient = 0.00361787
GAMG:  Solving for p, Initial residual = 1.21544e-05, Final residual = 1.18296e-06, No Iterations 6
time step continuity errors : sum local = 3.0864e-11, global = -7.67636e-18, cumulative = 6.6024e-16
Pressure gradient source: uncorrected Ubar = 1, pressure gradient = 0.00361783
smoothSolver:  Solving for omega, Initial residual = 7.33565e-06, Final residual = 7.33565e-06, No Iterations 0
smoothSolver:  Solving for k, Initial residual = 2.1405e-05, Final residual = 8.82587e-06, No Iterations 2
ExecutionTime = 10.6134 s  ClockTime = 10 s

Time = 4085s

smoothSolver:  Solving for Ux, Initial residual = 4.10613e-06, Final residual = 4.10613e-06, No Iterations 0
smoothSolver:  Solving for Uy, Initial residual = 0.000106953, Final residual = 9.25353e-06, No Iterations 5
Pressure gradient source: uncorrected Ubar = 1, pressure gradient = 0.00361783
GAMG:  Solving for p, Initial residual = 1.27827e-05, Final residual = 1.18134e-06, No Iterations 6
time step continuity errors : sum local = 3.07248e-11, global = -3.18774e-18, cumulative = 6.57053e-16
Pressure gradient source: uncorrected Ubar = 1, pressure gradient = 0.0036178
smoothSolver:  Solving for omega, Initial residual = 7.33578e-06, Final residual = 7.33578e-06, No Iterations 0
smoothSolver:  Solving for k, Initial residual = 2.13869e-05, Final residual = 8.82337e-06, No Iterations 2
ExecutionTime = 10.6159 s  ClockTime = 10 s

Time = 4086s

smoothSolver:  Solving for Ux, Initial residual = 4.08404e-06, Final residual = 4.08404e-06, No Iterations 0
smoothSolver:  Solving for Uy, Initial residual = 0.000104917, Final residual = 9.03175e-06, No Iterations 5
Pressure gradient source: uncorrected Ubar = 1, pressure gradient = 0.0036178
GAMG:  Solving for p, Initial residual = 1.22583e-05, Final residual = 1.11969e-06, No Iterations 6
time step continuity errors : sum local = 2.93769e-11, global = 9.8232e-18, cumulative = 6.66876e-16
Pressure gradient source: uncorrected Ubar = 1, pressure gradient = 0.00361777
smoothSolver:  Solving for omega, Initial residual = 7.33591e-06, Final residual = 7.33591e-06, No Iterations 0
smoothSolver:  Solving for k, Initial residual = 2.13661e-05, Final residual = 8.80414e-06, No Iterations 2
ExecutionTime = 10.6184 s  ClockTime = 10 s

Time = 4087s

smoothSolver:  Solving for Ux, Initial residual = 4.06194e-06, Final residual = 4.06194e-06, No Iterations 0
smoothSolver:  Solving for Uy, Initial residual = 9.98809e-05, Final residual = 8.50517e-06, No Iterations 5
Pressure gradient source: uncorrected Ubar = 1, pressure gradient = 0.00361777
GAMG:  Solving for p, Initial residual = 1.37814e-05, Final residual = 1.11325e-06, No Iterations 6
time step continuity errors : sum local = 2.88744e-11, global = 7.92277e-18, cumulative = 6.74799e-16
Pressure gradient source: uncorrected Ubar = 1, pressure gradient = 0.00361773
smoothSolver:  Solving for omega, Initial residual = 7.33604e-06, Final residual = 7.33604e-06, No Iterations 0
smoothSolver:  Solving for k, Initial residual = 2.13581e-05, Final residual = 8.8151e-06, No Iterations 2
ExecutionTime = 10.6209 s  ClockTime = 10 s


SIMPLE solution converged in 4087 iterations

End

