/*---------------------------------------------------------------------------*\
  =========                 |
  \\      /  F ield         | OpenFOAM: The Open Source CFD Toolbox
   \\    /   O peration     | Website:  https://openfoam.org
    \\  /    A nd           | Version:  10
     \\/     M anipulation  |
\*---------------------------------------------------------------------------*/
Build  : 10-e450dce21ea5
Exec   : blockMesh
Date   : Feb 20 2023
Time   : 14:14:13
Host   : "w530-R9YK46P"
PID    : 18779
I/O    : uncollated
Case   : /home/jdmezazeron/gitDanielMezaZ/turbulenceVisualized/Data/SimulationFiles/K27_Re2123
nProcs : 1
sigFpe : Enabling floating point exception trapping (FOAM_SIGFPE).
fileModificationChecking : Monitoring run-time modified files using timeStampMaster (fileModificationSkew 10)
allowSystemOperations : Allowing user-supplied system call operations

// * * * * * * * * * * * * * * * * * * * * * * * * * * * * * * * * * * * * * //
Create time

Deleting polyMesh directory
    "/home/jdmezazeron/gitDanielMezaZ/turbulenceVisualized/Data/SimulationFiles/K27_Re2123/constant/polyMesh"
Reading "blockMeshDict"

Creating block mesh from
    "system/blockMeshDict"
Creating block edges
No non-planar block faces defined
Creating topology blocks
Creating topology patches

Creating block mesh topology

Check topology

	Basic statistics
		Number of internal faces : 0
		Number of boundary faces : 6
		Number of defined boundary faces : 6
		Number of undefined boundary faces : 0
	Checking patch -> block consistency

Creating block offsets
Creating merge list .

Creating polyMesh from blockMesh
Creating patches
Creating cells
Creating points with scale 1
    Block 0 cell size :
        i : 0.5
        j : 0.00461374 .. 0.018455
        k : 2

Detected cyclic patches; ordering boundary faces

Writing polyMesh
----------------
Mesh Information
----------------
  boundingBox: (-1 0 -1) (1 1 1)
  nPoints: 1010
  nCells: 400
  nFaces: 1704
  nInternalFaces: 696
----------------
Patches
----------------
  patch 0 (start: 696 size: 100) name: inlet
  patch 1 (start: 796 size: 100) name: outlet
  patch 2 (start: 896 size: 4) name: fixedWalls-bottom
  patch 3 (start: 900 size: 4) name: fixedWalls-top
  patch 4 (start: 904 size: 800) name: frontAndBack

End

/*---------------------------------------------------------------------------*\
  =========                 |
  \\      /  F ield         | OpenFOAM: The Open Source CFD Toolbox
   \\    /   O peration     | Website:  https://openfoam.org
    \\  /    A nd           | Version:  10
     \\/     M anipulation  |
\*---------------------------------------------------------------------------*/
Build  : 10-e450dce21ea5
Exec   : simpleFoam
Date   : Feb 20 2023
Time   : 14:14:13
Host   : "w530-R9YK46P"
PID    : 18780
I/O    : uncollated
Case   : /home/jdmezazeron/gitDanielMezaZ/turbulenceVisualized/Data/SimulationFiles/K27_Re2123
nProcs : 1
sigFpe : Enabling floating point exception trapping (FOAM_SIGFPE).
fileModificationChecking : Monitoring run-time modified files using timeStampMaster (fileModificationSkew 10)
allowSystemOperations : Allowing user-supplied system call operations

// * * * * * * * * * * * * * * * * * * * * * * * * * * * * * * * * * * * * * //
Create time

Create mesh for time = 0


SIMPLE: Convergence criteria found
        U: tolerance 0.0001
        p: tolerance 0.01
        omega: tolerance 0.0001

Reading field p

Reading field U

Reading/calculating face flux field phi

Selecting viscosity model Newtonian
Selecting turbulence model type RAS
Selecting RAS turbulence model kOmegaSST
Selecting patchDistMethod meshWave
RAS
{
    RASModel        kOmegaSST;
    turbulence      on;
    printCoeffs     on;
    alphaK1         0.85;
    alphaK2         1;
    alphaOmega1     0.5;
    alphaOmega2     0.856;
    gamma1          0.555556;
    gamma2          0.44;
    beta1           0.075;
    beta2           0.0828;
    betaStar        0.09;
    a1              0.31;
    b1              1;
    c1              10;
    F3              false;
}

No MRF models present

--> FOAM Warning : Creating fvModels from "system/fvOptions" rather than constant/fvModels
No fvModels present
--> FOAM Warning : Creating fvConstraints from "system/fvOptions"

Selecting finite volume constraint type meanVelocityForce
    Name: momentumSource
    - selecting all cells
    - selected 400 cell(s) with volume 4
    Initial pressure gradient = 0


Starting time loop

turbulenceFields stressComponents: storing fields:
    R

Time = 1s

smoothSolver:  Solving for Ux, Initial residual = 0, Final residual = 0, No Iterations 0
smoothSolver:  Solving for Uy, Initial residual = 0, Final residual = 0, No Iterations 0
Pressure gradient source: uncorrected Ubar = 0, pressure gradient = 1254.02
GAMG:  Solving for p, Initial residual = 0.999996, Final residual = 0.0962162, No Iterations 4
time step continuity errors : sum local = 1.16121e-16, global = -2.5133e-18, cumulative = -2.5133e-18
Pressure gradient source: uncorrected Ubar = 0.884653, pressure gradient = 144.648
smoothSolver:  Solving for omega, Initial residual = 0.215725, Final residual = 0.0130344, No Iterations 3
smoothSolver:  Solving for k, Initial residual = 1, Final residual = 0.0532724, No Iterations 3
ExecutionTime = 0.014164 s  ClockTime = 0 s

Time = 2s

smoothSolver:  Solving for Ux, Initial residual = 0.990382, Final residual = 0.0916715, No Iterations 6
smoothSolver:  Solving for Uy, Initial residual = 1, Final residual = 0.0831855, No Iterations 5
Pressure gradient source: uncorrected Ubar = 44.8814, pressure gradient = -1076.84
GAMG:  Solving for p, Initial residual = 1, Final residual = 0.0880441, No Iterations 13
time step continuity errors : sum local = 0.0340624, global = -4.51299e-17, cumulative = -4.76432e-17
Pressure gradient source: uncorrected Ubar = 6.66751, pressure gradient = -13.1135
smoothSolver:  Solving for omega, Initial residual = 0.192902, Final residual = 0.0011448, No Iterations 1
smoothSolver:  Solving for k, Initial residual = 0.968587, Final residual = 0.0409953, No Iterations 1
ExecutionTime = 0.017241 s  ClockTime = 0 s

Time = 3s

smoothSolver:  Solving for Ux, Initial residual = 0.459538, Final residual = 0.0390228, No Iterations 6
smoothSolver:  Solving for Uy, Initial residual = 0.562409, Final residual = 0.0395796, No Iterations 2
Pressure gradient source: uncorrected Ubar = -1.40745, pressure gradient = 98.829
GAMG:  Solving for p, Initial residual = 0.193185, Final residual = 0.0164529, No Iterations 6
time step continuity errors : sum local = 0.0134891, global = 4.32055e-17, cumulative = -4.43776e-18
Pressure gradient source: uncorrected Ubar = 0.690146, pressure gradient = 1.29417
smoothSolver:  Solving for omega, Initial residual = 0.00989404, Final residual = 0.000362587, No Iterations 1
smoothSolver:  Solving for k, Initial residual = 0.428088, Final residual = 0.0213135, No Iterations 2
ExecutionTime = 0.019829 s  ClockTime = 0 s

Time = 4s

smoothSolver:  Solving for Ux, Initial residual = 0.109356, Final residual = 0.0104043, No Iterations 4
smoothSolver:  Solving for Uy, Initial residual = 0.33604, Final residual = 0.0153289, No Iterations 3
Pressure gradient source: uncorrected Ubar = 1.11833, pressure gradient = -2.57529
GAMG:  Solving for p, Initial residual = 0.124822, Final residual = 0.0111376, No Iterations 10
time step continuity errors : sum local = 0.0165571, global = -1.08454e-17, cumulative = -1.52832e-17
Pressure gradient source: uncorrected Ubar = 1.01781, pressure gradient = 0.711898
smoothSolver:  Solving for omega, Initial residual = 0.0081541, Final residual = 0.000360083, No Iterations 1
smoothSolver:  Solving for k, Initial residual = 0.547408, Final residual = 0.0544508, No Iterations 2
ExecutionTime = 0.022561 s  ClockTime = 0 s

Time = 5s

smoothSolver:  Solving for Ux, Initial residual = 0.0857012, Final residual = 0.00772857, No Iterations 4
smoothSolver:  Solving for Uy, Initial residual = 0.528823, Final residual = 0.0486282, No Iterations 2
Pressure gradient source: uncorrected Ubar = 0.99021, pressure gradient = 1.06518
GAMG:  Solving for p, Initial residual = 0.159635, Final residual = 0.0142411, No Iterations 11
time step continuity errors : sum local = 0.0186326, global = -1.33425e-17, cumulative = -2.86256e-17
Pressure gradient source: uncorrected Ubar = 0.997462, pressure gradient = 0.803473
smoothSolver:  Solving for omega, Initial residual = 0.00632642, Final residual = 0.000239498, No Iterations 2
smoothSolver:  Solving for k, Initial residual = 0.669866, Final residual = 0.017043, No Iterations 2
ExecutionTime = 0.025376 s  ClockTime = 0 s

Time = 6s

smoothSolver:  Solving for Ux, Initial residual = 0.0752756, Final residual = 0.00548697, No Iterations 4
smoothSolver:  Solving for Uy, Initial residual = 0.649852, Final residual = 0.0634946, No Iterations 2
Pressure gradient source: uncorrected Ubar = 0.959103, pressure gradient = 2.41365
GAMG:  Solving for p, Initial residual = 0.327745, Final residual = 0.0288892, No Iterations 10
time step continuity errors : sum local = 0.0306987, global = -2.44894e-17, cumulative = -5.3115e-17
Pressure gradient source: uncorrected Ubar = 0.992865, pressure gradient = 1.08439
smoothSolver:  Solving for omega, Initial residual = 0.00880182, Final residual = 0.000329263, No Iterations 2
smoothSolver:  Solving for k, Initial residual = 0.384152, Final residual = 0.0115475, No Iterations 2
ExecutionTime = 0.02811 s  ClockTime = 0 s

Time = 7s

smoothSolver:  Solving for Ux, Initial residual = 0.0519305, Final residual = 0.00443841, No Iterations 4
smoothSolver:  Solving for Uy, Initial residual = 0.458625, Final residual = 0.0191149, No Iterations 3
Pressure gradient source: uncorrected Ubar = 0.957516, pressure gradient = 2.93698
GAMG:  Solving for p, Initial residual = 0.295029, Final residual = 0.0285718, No Iterations 8
time step continuity errors : sum local = 0.0320008, global = -5.89128e-17, cumulative = -1.12028e-16
Pressure gradient source: uncorrected Ubar = 0.995203, pressure gradient = 1.29355
smoothSolver:  Solving for omega, Initial residual = 0.00675453, Final residual = 0.000174156, No Iterations 2
smoothSolver:  Solving for k, Initial residual = 0.225655, Final residual = 0.0103045, No Iterations 2
ExecutionTime = 0.030789 s  ClockTime = 0 s

Time = 8s

smoothSolver:  Solving for Ux, Initial residual = 0.0504481, Final residual = 0.00470011, No Iterations 4
smoothSolver:  Solving for Uy, Initial residual = 0.459361, Final residual = 0.0184238, No Iterations 3
Pressure gradient source: uncorrected Ubar = 0.989837, pressure gradient = 1.79926
GAMG:  Solving for p, Initial residual = 0.274184, Final residual = 0.0238725, No Iterations 4
time step continuity errors : sum local = 0.0301728, global = -1.64833e-17, cumulative = -1.28511e-16
Pressure gradient source: uncorrected Ubar = 0.999753, pressure gradient = 1.30583
smoothSolver:  Solving for omega, Initial residual = 0.00446962, Final residual = 0.000248443, No Iterations 2
smoothSolver:  Solving for k, Initial residual = 0.186286, Final residual = 0.0154446, No Iterations 2
ExecutionTime = 0.033271 s  ClockTime = 0 s

Time = 9s

smoothSolver:  Solving for Ux, Initial residual = 0.0393729, Final residual = 0.0035959, No Iterations 4
smoothSolver:  Solving for Uy, Initial residual = 0.424754, Final residual = 0.0241431, No Iterations 3
Pressure gradient source: uncorrected Ubar = 0.949445, pressure gradient = 4.29711
GAMG:  Solving for p, Initial residual = 0.271524, Final residual = 0.0183174, No Iterations 9
time step continuity errors : sum local = 0.0244782, global = 2.34188e-17, cumulative = -1.05092e-16
Pressure gradient source: uncorrected Ubar = 0.992849, pressure gradient = 1.72896
smoothSolver:  Solving for omega, Initial residual = 0.00296716, Final residual = 0.000258586, No Iterations 2
smoothSolver:  Solving for k, Initial residual = 0.155537, Final residual = 0.00892103, No Iterations 3
ExecutionTime = 0.035992 s  ClockTime = 0 s

Time = 10s

smoothSolver:  Solving for Ux, Initial residual = 0.0320243, Final residual = 0.0030828, No Iterations 4
smoothSolver:  Solving for Uy, Initial residual = 0.348435, Final residual = 0.0205854, No Iterations 3
Pressure gradient source: uncorrected Ubar = 0.970812, pressure gradient = 3.74259
GAMG:  Solving for p, Initial residual = 0.266749, Final residual = 0.0173251, No Iterations 9
time step continuity errors : sum local = 0.0216103, global = 2.63461e-17, cumulative = -7.87463e-17
Pressure gradient source: uncorrected Ubar = 0.995516, pressure gradient = 2.03833
smoothSolver:  Solving for omega, Initial residual = 0.00254058, Final residual = 0.000144666, No Iterations 3
smoothSolver:  Solving for k, Initial residual = 0.125409, Final residual = 0.0107315, No Iterations 3
ExecutionTime = 0.038731 s  ClockTime = 0 s

Time = 11s

smoothSolver:  Solving for Ux, Initial residual = 0.0266314, Final residual = 0.00263676, No Iterations 4
smoothSolver:  Solving for Uy, Initial residual = 0.391827, Final residual = 0.0195755, No Iterations 3
Pressure gradient source: uncorrected Ubar = 0.986233, pressure gradient = 3.08276
GAMG:  Solving for p, Initial residual = 0.237934, Final residual = 0.0212646, No Iterations 10
time step continuity errors : sum local = 0.0220742, global = 5.3668e-17, cumulative = -2.50783e-17
Pressure gradient source: uncorrected Ubar = 0.997875, pressure gradient = 2.19951
smoothSolver:  Solving for omega, Initial residual = 0.0024066, Final residual = 0.000171022, No Iterations 3
smoothSolver:  Solving for k, Initial residual = 0.103793, Final residual = 0.00670786, No Iterations 4
ExecutionTime = 0.041526 s  ClockTime = 0 s

Time = 12s

smoothSolver:  Solving for Ux, Initial residual = 0.0226991, Final residual = 0.00149761, No Iterations 5
smoothSolver:  Solving for Uy, Initial residual = 0.351108, Final residual = 0.0234211, No Iterations 3
Pressure gradient source: uncorrected Ubar = 0.986468, pressure gradient = 3.36098
GAMG:  Solving for p, Initial residual = 0.180007, Final residual = 0.0175949, No Iterations 4
time step continuity errors : sum local = 0.0263938, global = -4.75956e-17, cumulative = -7.26739e-17
Pressure gradient source: uncorrected Ubar = 0.997989, pressure gradient = 2.37209
smoothSolver:  Solving for omega, Initial residual = 0.00238967, Final residual = 0.000193822, No Iterations 3
smoothSolver:  Solving for k, Initial residual = 0.0827656, Final residual = 0.0063063, No Iterations 4
ExecutionTime = 0.044028 s  ClockTime = 0 s

Time = 13s

smoothSolver:  Solving for Ux, Initial residual = 0.0200299, Final residual = 0.00134637, No Iterations 5
smoothSolver:  Solving for Uy, Initial residual = 0.332572, Final residual = 0.0247794, No Iterations 3
Pressure gradient source: uncorrected Ubar = 0.990077, pressure gradient = 3.32283
GAMG:  Solving for p, Initial residual = 0.150863, Final residual = 0.0140431, No Iterations 9
time step continuity errors : sum local = 0.0229122, global = 3.76752e-17, cumulative = -3.49987e-17
Pressure gradient source: uncorrected Ubar = 0.999166, pressure gradient = 2.45195
smoothSolver:  Solving for omega, Initial residual = 0.00217724, Final residual = 0.000214124, No Iterations 3
smoothSolver:  Solving for k, Initial residual = 0.0675832, Final residual = 0.00597636, No Iterations 4
ExecutionTime = 0.046789 s  ClockTime = 0 s

Time = 14s

smoothSolver:  Solving for Ux, Initial residual = 0.0179976, Final residual = 0.00122921, No Iterations 5
smoothSolver:  Solving for Uy, Initial residual = 0.33297, Final residual = 0.0235724, No Iterations 3
Pressure gradient source: uncorrected Ubar = 0.992584, pressure gradient = 3.24233
GAMG:  Solving for p, Initial residual = 0.119672, Final residual = 0.00873852, No Iterations 9
time step continuity errors : sum local = 0.0155218, global = 2.42836e-17, cumulative = -1.07151e-17
Pressure gradient source: uncorrected Ubar = 0.999342, pressure gradient = 2.52207
smoothSolver:  Solving for omega, Initial residual = 0.00197525, Final residual = 0.000137519, No Iterations 4
smoothSolver:  Solving for k, Initial residual = 0.057994, Final residual = 0.0035705, No Iterations 5
ExecutionTime = 0.049549 s  ClockTime = 0 s

Time = 15s

smoothSolver:  Solving for Ux, Initial residual = 0.0164088, Final residual = 0.00114207, No Iterations 5
smoothSolver:  Solving for Uy, Initial residual = 0.247497, Final residual = 0.0210741, No Iterations 3
Pressure gradient source: uncorrected Ubar = 0.995285, pressure gradient = 3.07056
GAMG:  Solving for p, Initial residual = 0.0931102, Final residual = 0.00760409, No Iterations 8
time step continuity errors : sum local = 0.0138141, global = -1.31188e-17, cumulative = -2.3834e-17
Pressure gradient source: uncorrected Ubar = 0.999617, pressure gradient = 2.56666
smoothSolver:  Solving for omega, Initial residual = 0.00183574, Final residual = 0.000130488, No Iterations 4
smoothSolver:  Solving for k, Initial residual = 0.0507536, Final residual = 0.00350977, No Iterations 5
ExecutionTime = 0.052254 s  ClockTime = 0 s

Time = 16s

smoothSolver:  Solving for Ux, Initial residual = 0.0151397, Final residual = 0.0010707, No Iterations 5
smoothSolver:  Solving for Uy, Initial residual = 0.262759, Final residual = 0.0210949, No Iterations 3
Pressure gradient source: uncorrected Ubar = 0.997745, pressure gradient = 2.85777
GAMG:  Solving for p, Initial residual = 0.0836951, Final residual = 0.00706159, No Iterations 9
time step continuity errors : sum local = 0.00925785, global = 4.13632e-17, cumulative = 1.75292e-17
Pressure gradient source: uncorrected Ubar = 0.999702, pressure gradient = 2.60515
smoothSolver:  Solving for omega, Initial residual = 0.00184157, Final residual = 0.000148924, No Iterations 4
smoothSolver:  Solving for k, Initial residual = 0.0456082, Final residual = 0.00352189, No Iterations 5
ExecutionTime = 0.055054 s  ClockTime = 0 s

Time = 17s

smoothSolver:  Solving for Ux, Initial residual = 0.0141054, Final residual = 0.00101189, No Iterations 5
smoothSolver:  Solving for Uy, Initial residual = 0.299131, Final residual = 0.0283011, No Iterations 3
Pressure gradient source: uncorrected Ubar = 1.00097, pressure gradient = 2.46812
GAMG:  Solving for p, Initial residual = 0.0905844, Final residual = 0.00811748, No Iterations 10
time step continuity errors : sum local = 0.00720717, global = 1.85657e-17, cumulative = 3.60949e-17
Pressure gradient source: uncorrected Ubar = 1.00014, pressure gradient = 2.58549
smoothSolver:  Solving for omega, Initial residual = 0.00167655, Final residual = 0.000146044, No Iterations 4
smoothSolver:  Solving for k, Initial residual = 0.0404592, Final residual = 0.00337406, No Iterations 5
ExecutionTime = 0.057855 s  ClockTime = 0 s

Time = 18s

smoothSolver:  Solving for Ux, Initial residual = 0.0132323, Final residual = 0.000961345, No Iterations 5
smoothSolver:  Solving for Uy, Initial residual = 0.296811, Final residual = 0.0170641, No Iterations 4
Pressure gradient source: uncorrected Ubar = 1.00384, pressure gradient = 1.99071
GAMG:  Solving for p, Initial residual = 0.127463, Final residual = 0.0121942, No Iterations 10
time step continuity errors : sum local = 0.0076138, global = 2.52263e-17, cumulative = 6.13212e-17
Pressure gradient source: uncorrected Ubar = 1.00048, pressure gradient = 2.51091
smoothSolver:  Solving for omega, Initial residual = 0.00154494, Final residual = 0.000149069, No Iterations 4
smoothSolver:  Solving for k, Initial residual = 0.036072, Final residual = 0.00319093, No Iterations 5
ExecutionTime = 0.060645 s  ClockTime = 0 s

Time = 19s

smoothSolver:  Solving for Ux, Initial residual = 0.0124945, Final residual = 0.000918273, No Iterations 5
smoothSolver:  Solving for Uy, Initial residual = 0.287123, Final residual = 0.0175062, No Iterations 4
Pressure gradient source: uncorrected Ubar = 1.00392, pressure gradient = 1.85485
GAMG:  Solving for p, Initial residual = 0.179731, Final residual = 0.0147334, No Iterations 11
time step continuity errors : sum local = 0.00558703, global = -4.10498e-17, cumulative = 2.02715e-17
Pressure gradient source: uncorrected Ubar = 1.00045, pressure gradient = 2.4352
smoothSolver:  Solving for omega, Initial residual = 0.00147016, Final residual = 9.29105e-05, No Iterations 5
smoothSolver:  Solving for k, Initial residual = 0.0327928, Final residual = 0.0030839, No Iterations 5
ExecutionTime = 0.063498 s  ClockTime = 0 s

Time = 20s

smoothSolver:  Solving for Ux, Initial residual = 0.0118699, Final residual = 0.000882821, No Iterations 5
smoothSolver:  Solving for Uy, Initial residual = 0.292495, Final residual = 0.0184582, No Iterations 4
Pressure gradient source: uncorrected Ubar = 1.00432, pressure gradient = 1.66182
GAMG:  Solving for p, Initial residual = 0.077933, Final residual = 0.00692673, No Iterations 13
time step continuity errors : sum local = 0.00444333, global = -5.93622e-18, cumulative = 1.43352e-17
Pressure gradient source: uncorrected Ubar = 1.00049, pressure gradient = 2.34769
smoothSolver:  Solving for omega, Initial residual = 0.00133105, Final residual = 9.26354e-05, No Iterations 5
smoothSolver:  Solving for k, Initial residual = 0.0298427, Final residual = 0.00291247, No Iterations 5
ExecutionTime = 0.066472 s  ClockTime = 0 s

Time = 21s

smoothSolver:  Solving for Ux, Initial residual = 0.0113013, Final residual = 0.000847687, No Iterations 5
smoothSolver:  Solving for Uy, Initial residual = 0.260186, Final residual = 0.0203813, No Iterations 4
Pressure gradient source: uncorrected Ubar = 1.00481, pressure gradient = 1.42396
GAMG:  Solving for p, Initial residual = 0.050232, Final residual = 0.0048203, No Iterations 11
time step continuity errors : sum local = 0.00401542, global = 4.21416e-17, cumulative = 5.64768e-17
Pressure gradient source: uncorrected Ubar = 1.00052, pressure gradient = 2.24717
smoothSolver:  Solving for omega, Initial residual = 0.00122143, Final residual = 8.52801e-05, No Iterations 5
smoothSolver:  Solving for k, Initial residual = 0.0274815, Final residual = 0.00178305, No Iterations 6
ExecutionTime = 0.069351 s  ClockTime = 0 s

Time = 22s

smoothSolver:  Solving for Ux, Initial residual = 0.0108015, Final residual = 0.00081981, No Iterations 5
smoothSolver:  Solving for Uy, Initial residual = 0.236752, Final residual = 0.0206051, No Iterations 4
Pressure gradient source: uncorrected Ubar = 1.00431, pressure gradient = 1.36492
GAMG:  Solving for p, Initial residual = 0.0345727, Final residual = 0.00320792, No Iterations 11
time step continuity errors : sum local = 0.00286236, global = -3.7676e-17, cumulative = 1.88008e-17
Pressure gradient source: uncorrected Ubar = 1.00046, pressure gradient = 2.15259
smoothSolver:  Solving for omega, Initial residual = 0.00115186, Final residual = 8.96584e-05, No Iterations 5
smoothSolver:  Solving for k, Initial residual = 0.0249906, Final residual = 0.00167612, No Iterations 6
ExecutionTime = 0.07222 s  ClockTime = 0 s

Time = 23s

smoothSolver:  Solving for Ux, Initial residual = 0.0103715, Final residual = 0.000794069, No Iterations 5
smoothSolver:  Solving for Uy, Initial residual = 0.235566, Final residual = 0.0215448, No Iterations 4
Pressure gradient source: uncorrected Ubar = 1.00344, pressure gradient = 1.41002
GAMG:  Solving for p, Initial residual = 0.0226385, Final residual = 0.00200572, No Iterations 11
time step continuity errors : sum local = 0.00172916, global = -5.01549e-19, cumulative = 1.82993e-17
Pressure gradient source: uncorrected Ubar = 1.00035, pressure gradient = 2.0775
smoothSolver:  Solving for omega, Initial residual = 0.00104952, Final residual = 8.62034e-05, No Iterations 5
smoothSolver:  Solving for k, Initial residual = 0.0227555, Final residual = 0.00156802, No Iterations 6
ExecutionTime = 0.075106 s  ClockTime = 0 s

Time = 24s

smoothSolver:  Solving for Ux, Initial residual = 0.00996634, Final residual = 0.000770492, No Iterations 5
smoothSolver:  Solving for Uy, Initial residual = 0.223021, Final residual = 0.0138768, No Iterations 5
Pressure gradient source: uncorrected Ubar = 1.00325, pressure gradient = 1.33617
GAMG:  Solving for p, Initial residual = 0.0191222, Final residual = 0.00183972, No Iterations 9
time step continuity errors : sum local = 0.00125, global = 2.37978e-17, cumulative = 4.20971e-17
Pressure gradient source: uncorrected Ubar = 1.00032, pressure gradient = 2.00522
smoothSolver:  Solving for omega, Initial residual = 0.00097451, Final residual = 8.4195e-05, No Iterations 5
smoothSolver:  Solving for k, Initial residual = 0.0208951, Final residual = 0.0014692, No Iterations 6
ExecutionTime = 0.077901 s  ClockTime = 0 s

Time = 25s

smoothSolver:  Solving for Ux, Initial residual = 0.00962374, Final residual = 0.000750686, No Iterations 5
smoothSolver:  Solving for Uy, Initial residual = 0.21881, Final residual = 0.0143294, No Iterations 5
Pressure gradient source: uncorrected Ubar = 1.00258, pressure gradient = 1.38984
GAMG:  Solving for p, Initial residual = 0.0177809, Final residual = 0.00168015, No Iterations 9
time step continuity errors : sum local = 0.00085029, global = 5.03034e-17, cumulative = 9.24004e-17
Pressure gradient source: uncorrected Ubar = 1.00023, pressure gradient = 1.94932
smoothSolver:  Solving for omega, Initial residual = 0.000915631, Final residual = 8.17318e-05, No Iterations 5
smoothSolver:  Solving for k, Initial residual = 0.0191329, Final residual = 0.00137458, No Iterations 6
ExecutionTime = 0.080692 s  ClockTime = 0 s

Time = 26s

smoothSolver:  Solving for Ux, Initial residual = 0.00930814, Final residual = 0.00073113, No Iterations 5
smoothSolver:  Solving for Uy, Initial residual = 0.251588, Final residual = 0.0162635, No Iterations 5
Pressure gradient source: uncorrected Ubar = 1.0023, pressure gradient = 1.37318
GAMG:  Solving for p, Initial residual = 0.0171408, Final residual = 0.00158551, No Iterations 12
time step continuity errors : sum local = 0.000839165, global = -4.42762e-17, cumulative = 4.81243e-17
Pressure gradient source: uncorrected Ubar = 1.0002, pressure gradient = 1.89975
smoothSolver:  Solving for omega, Initial residual = 0.000868001, Final residual = 8.07341e-05, No Iterations 5
smoothSolver:  Solving for k, Initial residual = 0.0175376, Final residual = 0.00126922, No Iterations 6
ExecutionTime = 0.083618 s  ClockTime = 0 s

Time = 27s

smoothSolver:  Solving for Ux, Initial residual = 0.00900701, Final residual = 0.000714146, No Iterations 5
smoothSolver:  Solving for Uy, Initial residual = 0.251012, Final residual = 0.0162438, No Iterations 5
Pressure gradient source: uncorrected Ubar = 1.00181, pressure gradient = 1.42664
GAMG:  Solving for p, Initial residual = 0.0182618, Final residual = 0.00170286, No Iterations 16
time step continuity errors : sum local = 0.00074217, global = -3.00527e-17, cumulative = 1.80716e-17
Pressure gradient source: uncorrected Ubar = 1.00014, pressure gradient = 1.86307
smoothSolver:  Solving for omega, Initial residual = 0.000813658, Final residual = 7.82128e-05, No Iterations 5
smoothSolver:  Solving for k, Initial residual = 0.0162615, Final residual = 0.00120841, No Iterations 6
ExecutionTime = 0.086739 s  ClockTime = 0 s

Time = 28s

smoothSolver:  Solving for Ux, Initial residual = 0.0087466, Final residual = 0.000698287, No Iterations 5
smoothSolver:  Solving for Uy, Initial residual = 0.222186, Final residual = 0.0151558, No Iterations 5
Pressure gradient source: uncorrected Ubar = 1.0017, pressure gradient = 1.40061
GAMG:  Solving for p, Initial residual = 0.0208913, Final residual = 0.00185215, No Iterations 20
time step continuity errors : sum local = 0.000557324, global = 3.49554e-17, cumulative = 5.30269e-17
Pressure gradient source: uncorrected Ubar = 1.00013, pressure gradient = 1.8284
smoothSolver:  Solving for omega, Initial residual = 0.000775101, Final residual = 7.66796e-05, No Iterations 5
smoothSolver:  Solving for k, Initial residual = 0.0149812, Final residual = 0.00112606, No Iterations 6
ExecutionTime = 0.090048 s  ClockTime = 0 s

Time = 29s

smoothSolver:  Solving for Ux, Initial residual = 0.00851765, Final residual = 0.000677854, No Iterations 5
smoothSolver:  Solving for Uy, Initial residual = 0.217391, Final residual = 0.0168561, No Iterations 5
Pressure gradient source: uncorrected Ubar = 1.00134, pressure gradient = 1.44765
GAMG:  Solving for p, Initial residual = 0.0263763, Final residual = 0.00252657, No Iterations 20
time step continuity errors : sum local = 0.000452371, global = 7.53521e-18, cumulative = 6.05621e-17
Pressure gradient source: uncorrected Ubar = 1.00008, pressure gradient = 1.80455
smoothSolver:  Solving for omega, Initial residual = 0.000739719, Final residual = 5.03878e-05, No Iterations 6
smoothSolver:  Solving for k, Initial residual = 0.0136023, Final residual = 0.0010274, No Iterations 6
ExecutionTime = 0.093346 s  ClockTime = 0 s

Time = 30s

smoothSolver:  Solving for Ux, Initial residual = 0.00823968, Final residual = 0.000652931, No Iterations 5
smoothSolver:  Solving for Uy, Initial residual = 0.156913, Final residual = 0.0119176, No Iterations 5
Pressure gradient source: uncorrected Ubar = 1.00098, pressure gradient = 1.51754
GAMG:  Solving for p, Initial residual = 0.0387347, Final residual = 0.00387264, No Iterations 21
time step continuity errors : sum local = 0.000356511, global = -9.86455e-18, cumulative = 5.06976e-17
Pressure gradient source: uncorrected Ubar = 1.00004, pressure gradient = 1.79273
smoothSolver:  Solving for omega, Initial residual = 0.000698458, Final residual = 4.80698e-05, No Iterations 6
smoothSolver:  Solving for k, Initial residual = 0.012267, Final residual = 0.000937844, No Iterations 6
ExecutionTime = 0.096702 s  ClockTime = 0 s

Time = 31s

smoothSolver:  Solving for Ux, Initial residual = 0.00793363, Final residual = 0.000628099, No Iterations 5
smoothSolver:  Solving for Uy, Initial residual = 0.107821, Final residual = 0.00760915, No Iterations 5
Pressure gradient source: uncorrected Ubar = 1.00087, pressure gradient = 1.52766
GAMG:  Solving for p, Initial residual = 0.0712558, Final residual = 0.00637376, No Iterations 23
time step continuity errors : sum local = 0.000237256, global = 3.4697e-17, cumulative = 8.53946e-17
Pressure gradient source: uncorrected Ubar = 1.00003, pressure gradient = 1.78384
smoothSolver:  Solving for omega, Initial residual = 0.000668721, Final residual = 4.695e-05, No Iterations 6
smoothSolver:  Solving for k, Initial residual = 0.0109091, Final residual = 0.000830679, No Iterations 6
ExecutionTime = 0.100121 s  ClockTime = 0 s

Time = 32s

smoothSolver:  Solving for Ux, Initial residual = 0.00763954, Final residual = 0.000605265, No Iterations 5
smoothSolver:  Solving for Uy, Initial residual = 0.0885154, Final residual = 0.0072554, No Iterations 5
Pressure gradient source: uncorrected Ubar = 1.00078, pressure gradient = 1.53989
GAMG:  Solving for p, Initial residual = 0.0820915, Final residual = 0.00793286, No Iterations 19
time step continuity errors : sum local = 0.000203245, global = -2.0012e-17, cumulative = 6.53826e-17
Pressure gradient source: uncorrected Ubar = 1.00002, pressure gradient = 1.77762
smoothSolver:  Solving for omega, Initial residual = 0.000640413, Final residual = 4.46428e-05, No Iterations 6
smoothSolver:  Solving for k, Initial residual = 0.00975938, Final residual = 0.000745047, No Iterations 6
ExecutionTime = 0.103379 s  ClockTime = 0 s

Time = 33s

smoothSolver:  Solving for Ux, Initial residual = 0.00736151, Final residual = 0.000584586, No Iterations 5
smoothSolver:  Solving for Uy, Initial residual = 0.0776835, Final residual = 0.00677951, No Iterations 5
Pressure gradient source: uncorrected Ubar = 1.00066, pressure gradient = 1.56397
GAMG:  Solving for p, Initial residual = 0.0552134, Final residual = 0.00474645, No Iterations 15
time step continuity errors : sum local = 0.000145897, global = -5.41152e-17, cumulative = 1.12674e-17
Pressure gradient source: uncorrected Ubar = 1.00001, pressure gradient = 1.7752
smoothSolver:  Solving for omega, Initial residual = 0.000617276, Final residual = 4.5516e-05, No Iterations 6
smoothSolver:  Solving for k, Initial residual = 0.00886452, Final residual = 0.000666989, No Iterations 6
ExecutionTime = 0.106462 s  ClockTime = 0 s

Time = 34s

smoothSolver:  Solving for Ux, Initial residual = 0.00711161, Final residual = 0.00056578, No Iterations 5
smoothSolver:  Solving for Uy, Initial residual = 0.0680538, Final residual = 0.00639959, No Iterations 5
Pressure gradient source: uncorrected Ubar = 1.0006, pressure gradient = 1.57316
GAMG:  Solving for p, Initial residual = 0.0488505, Final residual = 0.00475979, No Iterations 8
time step continuity errors : sum local = 0.000134927, global = -1.12406e-17, cumulative = 2.68241e-20
Pressure gradient source: uncorrected Ubar = 1, pressure gradient = 1.77424
smoothSolver:  Solving for omega, Initial residual = 0.000597836, Final residual = 4.32481e-05, No Iterations 6
smoothSolver:  Solving for k, Initial residual = 0.00830279, Final residual = 0.000602577, No Iterations 6
ExecutionTime = 0.109231 s  ClockTime = 0 s

Time = 35s

smoothSolver:  Solving for Ux, Initial residual = 0.00689102, Final residual = 0.000549773, No Iterations 5
smoothSolver:  Solving for Uy, Initial residual = 0.0767592, Final residual = 0.00719235, No Iterations 5
Pressure gradient source: uncorrected Ubar = 1.0006, pressure gradient = 1.56568
GAMG:  Solving for p, Initial residual = 0.0652849, Final residual = 0.00593712, No Iterations 8
time step continuity errors : sum local = 9.30772e-05, global = 2.08116e-17, cumulative = 2.08384e-17
Pressure gradient source: uncorrected Ubar = 1.00001, pressure gradient = 1.77243
smoothSolver:  Solving for omega, Initial residual = 0.000577348, Final residual = 4.19781e-05, No Iterations 6
smoothSolver:  Solving for k, Initial residual = 0.00789985, Final residual = 0.000565688, No Iterations 6
ExecutionTime = 0.112007 s  ClockTime = 0 s

Time = 36s

smoothSolver:  Solving for Ux, Initial residual = 0.00669042, Final residual = 0.00053559, No Iterations 5
smoothSolver:  Solving for Uy, Initial residual = 0.0895973, Final residual = 0.00578193, No Iterations 6
Pressure gradient source: uncorrected Ubar = 1.00055, pressure gradient = 1.57453
GAMG:  Solving for p, Initial residual = 0.0573209, Final residual = 0.0048453, No Iterations 8
time step continuity errors : sum local = 6.8222e-05, global = 1.20109e-18, cumulative = 2.20395e-17
Pressure gradient source: uncorrected Ubar = 1, pressure gradient = 1.77194
smoothSolver:  Solving for omega, Initial residual = 0.000560387, Final residual = 4.10378e-05, No Iterations 6
smoothSolver:  Solving for k, Initial residual = 0.0076166, Final residual = 0.000550779, No Iterations 6
ExecutionTime = 0.114825 s  ClockTime = 0 s

Time = 37s

smoothSolver:  Solving for Ux, Initial residual = 0.00650696, Final residual = 0.000522835, No Iterations 5
smoothSolver:  Solving for Uy, Initial residual = 0.0850971, Final residual = 0.00560072, No Iterations 6
Pressure gradient source: uncorrected Ubar = 1.00062, pressure gradient = 1.54417
GAMG:  Solving for p, Initial residual = 0.0366138, Final residual = 0.00363424, No Iterations 4
time step continuity errors : sum local = 7.56544e-05, global = 2.44119e-17, cumulative = 4.64514e-17
Pressure gradient source: uncorrected Ubar = 1.00001, pressure gradient = 1.76769
smoothSolver:  Solving for omega, Initial residual = 0.000544039, Final residual = 4.06228e-05, No Iterations 6
smoothSolver:  Solving for k, Initial residual = 0.00742113, Final residual = 0.00053972, No Iterations 6
ExecutionTime = 0.117408 s  ClockTime = 0 s

Time = 38s

smoothSolver:  Solving for Ux, Initial residual = 0.00633534, Final residual = 0.000511037, No Iterations 5
smoothSolver:  Solving for Uy, Initial residual = 0.0838033, Final residual = 0.00543261, No Iterations 6
Pressure gradient source: uncorrected Ubar = 1.0006, pressure gradient = 1.53956
GAMG:  Solving for p, Initial residual = 0.0204212, Final residual = 0.00178703, No Iterations 9
time step continuity errors : sum local = 5.21743e-05, global = -2.38537e-17, cumulative = 2.25977e-17
Pressure gradient source: uncorrected Ubar = 1.00001, pressure gradient = 1.76339
smoothSolver:  Solving for omega, Initial residual = 0.000526579, Final residual = 4.00056e-05, No Iterations 6
smoothSolver:  Solving for k, Initial residual = 0.00726138, Final residual = 0.000531737, No Iterations 6
ExecutionTime = 0.12022 s  ClockTime = 0 s

Time = 39s

smoothSolver:  Solving for Ux, Initial residual = 0.00618083, Final residual = 0.000500324, No Iterations 5
smoothSolver:  Solving for Uy, Initial residual = 0.0704491, Final residual = 0.0045237, No Iterations 6
Pressure gradient source: uncorrected Ubar = 1.00058, pressure gradient = 1.53696
GAMG:  Solving for p, Initial residual = 0.0135976, Final residual = 0.00123526, No Iterations 11
time step continuity errors : sum local = 4.15111e-05, global = 2.11716e-17, cumulative = 4.37693e-17
Pressure gradient source: uncorrected Ubar = 1.00001, pressure gradient = 1.75935
smoothSolver:  Solving for omega, Initial residual = 0.000507785, Final residual = 3.71038e-05, No Iterations 6
smoothSolver:  Solving for k, Initial residual = 0.00716997, Final residual = 0.000532385, No Iterations 6
ExecutionTime = 0.123142 s  ClockTime = 0 s

Time = 40s

smoothSolver:  Solving for Ux, Initial residual = 0.00603908, Final residual = 0.000491433, No Iterations 5
smoothSolver:  Solving for Uy, Initial residual = 0.0611083, Final residual = 0.00601242, No Iterations 5
Pressure gradient source: uncorrected Ubar = 1.00058, pressure gradient = 1.52811
GAMG:  Solving for p, Initial residual = 0.011302, Final residual = 0.00109824, No Iterations 15
time step continuity errors : sum local = 3.78658e-05, global = 7.75077e-18, cumulative = 5.15201e-17
Pressure gradient source: uncorrected Ubar = 1.00001, pressure gradient = 1.75481
smoothSolver:  Solving for omega, Initial residual = 0.000493064, Final residual = 3.63943e-05, No Iterations 6
smoothSolver:  Solving for k, Initial residual = 0.00712338, Final residual = 0.000534251, No Iterations 6
ExecutionTime = 0.126221 s  ClockTime = 0 s

Time = 41s

smoothSolver:  Solving for Ux, Initial residual = 0.0059045, Final residual = 0.000482948, No Iterations 5
smoothSolver:  Solving for Uy, Initial residual = 0.0557793, Final residual = 0.00552315, No Iterations 5
Pressure gradient source: uncorrected Ubar = 1.00051, pressure gradient = 1.54474
GAMG:  Solving for p, Initial residual = 0.0111003, Final residual = 0.00108025, No Iterations 15
time step continuity errors : sum local = 3.73807e-05, global = 4.14199e-18, cumulative = 5.56621e-17
Pressure gradient source: uncorrected Ubar = 1, pressure gradient = 1.75315
smoothSolver:  Solving for omega, Initial residual = 0.00047847, Final residual = 3.54643e-05, No Iterations 6
smoothSolver:  Solving for k, Initial residual = 0.00705529, Final residual = 0.000530975, No Iterations 6
ExecutionTime = 0.129289 s  ClockTime = 0 s

Time = 42s

smoothSolver:  Solving for Ux, Initial residual = 0.00577685, Final residual = 0.0004748, No Iterations 5
smoothSolver:  Solving for Uy, Initial residual = 0.0424542, Final residual = 0.00397499, No Iterations 5
Pressure gradient source: uncorrected Ubar = 1.00046, pressure gradient = 1.55832
GAMG:  Solving for p, Initial residual = 0.0107613, Final residual = 0.000947803, No Iterations 19
time step continuity errors : sum local = 3.12884e-05, global = 2.16434e-17, cumulative = 7.73054e-17
Pressure gradient source: uncorrected Ubar = 0.999999, pressure gradient = 1.75372
smoothSolver:  Solving for omega, Initial residual = 0.000464454, Final residual = 3.40515e-05, No Iterations 6
smoothSolver:  Solving for k, Initial residual = 0.00699997, Final residual = 0.000529472, No Iterations 6
ExecutionTime = 0.132559 s  ClockTime = 0 s

Time = 43s

smoothSolver:  Solving for Ux, Initial residual = 0.00565867, Final residual = 0.000466929, No Iterations 5
smoothSolver:  Solving for Uy, Initial residual = 0.0363428, Final residual = 0.00353007, No Iterations 5
Pressure gradient source: uncorrected Ubar = 1.00042, pressure gradient = 1.57018
GAMG:  Solving for p, Initial residual = 0.0141872, Final residual = 0.00125169, No Iterations 7
time step continuity errors : sum local = 4.17732e-05, global = 2.43945e-18, cumulative = 7.97449e-17
Pressure gradient source: uncorrected Ubar = 0.999995, pressure gradient = 1.75609
smoothSolver:  Solving for omega, Initial residual = 0.000453664, Final residual = 3.40155e-05, No Iterations 6
smoothSolver:  Solving for k, Initial residual = 0.00693246, Final residual = 0.000526058, No Iterations 6
ExecutionTime = 0.135274 s  ClockTime = 0 s

Time = 44s

smoothSolver:  Solving for Ux, Initial residual = 0.0055466, Final residual = 0.00045993, No Iterations 5
smoothSolver:  Solving for Uy, Initial residual = 0.0272054, Final residual = 0.00261809, No Iterations 5
Pressure gradient source: uncorrected Ubar = 1.0004, pressure gradient = 1.57779
GAMG:  Solving for p, Initial residual = 0.0144063, Final residual = 0.00141738, No Iterations 7
time step continuity errors : sum local = 3.73788e-05, global = -1.06218e-17, cumulative = 6.91231e-17
Pressure gradient source: uncorrected Ubar = 0.999993, pressure gradient = 1.75946
smoothSolver:  Solving for omega, Initial residual = 0.000440985, Final residual = 3.36154e-05, No Iterations 6
smoothSolver:  Solving for k, Initial residual = 0.00688881, Final residual = 0.000527184, No Iterations 6
ExecutionTime = 0.137992 s  ClockTime = 0 s

Time = 45s

smoothSolver:  Solving for Ux, Initial residual = 0.00543928, Final residual = 0.000453139, No Iterations 5
smoothSolver:  Solving for Uy, Initial residual = 0.0252241, Final residual = 0.00218881, No Iterations 5
Pressure gradient source: uncorrected Ubar = 1.00036, pressure gradient = 1.59111
GAMG:  Solving for p, Initial residual = 0.0155467, Final residual = 0.00135267, No Iterations 16
time step continuity errors : sum local = 3.03054e-05, global = -2.65375e-17, cumulative = 4.25856e-17
Pressure gradient source: uncorrected Ubar = 0.999989, pressure gradient = 1.76454
smoothSolver:  Solving for omega, Initial residual = 0.000428796, Final residual = 3.18035e-05, No Iterations 6
smoothSolver:  Solving for k, Initial residual = 0.00684869, Final residual = 0.00052445, No Iterations 6
ExecutionTime = 0.1411 s  ClockTime = 0 s

Time = 46s

smoothSolver:  Solving for Ux, Initial residual = 0.00533536, Final residual = 0.000446361, No Iterations 5
smoothSolver:  Solving for Uy, Initial residual = 0.0214993, Final residual = 0.00166286, No Iterations 5
Pressure gradient source: uncorrected Ubar = 1.00027, pressure gradient = 1.63734
GAMG:  Solving for p, Initial residual = 0.0206529, Final residual = 0.0020068, No Iterations 12
time step continuity errors : sum local = 3.34242e-05, global = -5.32767e-17, cumulative = -1.06911e-17
Pressure gradient source: uncorrected Ubar = 0.999977, pressure gradient = 1.77549
smoothSolver:  Solving for omega, Initial residual = 0.000418241, Final residual = 3.1801e-05, No Iterations 6
smoothSolver:  Solving for k, Initial residual = 0.00682895, Final residual = 0.00052514, No Iterations 6
ExecutionTime = 0.144042 s  ClockTime = 0 s

Time = 47s

smoothSolver:  Solving for Ux, Initial residual = 0.00523637, Final residual = 0.000439664, No Iterations 5
smoothSolver:  Solving for Uy, Initial residual = 0.0208329, Final residual = 0.00175265, No Iterations 5
Pressure gradient source: uncorrected Ubar = 1.00022, pressure gradient = 1.66774
GAMG:  Solving for p, Initial residual = 0.0212686, Final residual = 0.00196561, No Iterations 14
time step continuity errors : sum local = 2.56277e-05, global = -2.16569e-17, cumulative = -3.2348e-17
Pressure gradient source: uncorrected Ubar = 0.999971, pressure gradient = 1.78959
smoothSolver:  Solving for omega, Initial residual = 0.000407305, Final residual = 3.10556e-05, No Iterations 6
smoothSolver:  Solving for k, Initial residual = 0.00678149, Final residual = 0.000526104, No Iterations 6
ExecutionTime = 0.147059 s  ClockTime = 0 s

Time = 48s

smoothSolver:  Solving for Ux, Initial residual = 0.00514427, Final residual = 0.000433661, No Iterations 5
smoothSolver:  Solving for Uy, Initial residual = 0.0235768, Final residual = 0.0020631, No Iterations 5
Pressure gradient source: uncorrected Ubar = 1.00022, pressure gradient = 1.67658
GAMG:  Solving for p, Initial residual = 0.0329455, Final residual = 0.00302506, No Iterations 7
time step continuity errors : sum local = 2.94341e-05, global = -1.75759e-17, cumulative = -4.9924e-17
Pressure gradient source: uncorrected Ubar = 0.999972, pressure gradient = 1.80366
smoothSolver:  Solving for omega, Initial residual = 0.000396783, Final residual = 2.97205e-05, No Iterations 6
smoothSolver:  Solving for k, Initial residual = 0.0067417, Final residual = 0.000526309, No Iterations 6
ExecutionTime = 0.149776 s  ClockTime = 0 s

Time = 49s

smoothSolver:  Solving for Ux, Initial residual = 0.00505351, Final residual = 0.000427831, No Iterations 5
smoothSolver:  Solving for Uy, Initial residual = 0.0233753, Final residual = 0.00205911, No Iterations 5
Pressure gradient source: uncorrected Ubar = 1.00017, pressure gradient = 1.71601
GAMG:  Solving for p, Initial residual = 0.0374429, Final residual = 0.00345513, No Iterations 14
time step continuity errors : sum local = 2.28297e-05, global = -7.79609e-18, cumulative = -5.77201e-17
Pressure gradient source: uncorrected Ubar = 0.999966, pressure gradient = 1.82175
smoothSolver:  Solving for omega, Initial residual = 0.000386126, Final residual = 2.91127e-05, No Iterations 6
smoothSolver:  Solving for k, Initial residual = 0.00671512, Final residual = 0.000522802, No Iterations 6
ExecutionTime = 0.152814 s  ClockTime = 0 s

Time = 50s

smoothSolver:  Solving for Ux, Initial residual = 0.00496444, Final residual = 0.000421952, No Iterations 5
smoothSolver:  Solving for Uy, Initial residual = 0.0229653, Final residual = 0.00204256, No Iterations 5
Pressure gradient source: uncorrected Ubar = 1.00011, pressure gradient = 1.76135
GAMG:  Solving for p, Initial residual = 0.0344182, Final residual = 0.00335721, No Iterations 5
time step continuity errors : sum local = 2.04444e-05, global = -3.69865e-17, cumulative = -9.47066e-17
Pressure gradient source: uncorrected Ubar = 0.999959, pressure gradient = 1.84419
smoothSolver:  Solving for omega, Initial residual = 0.000375319, Final residual = 2.82525e-05, No Iterations 6
smoothSolver:  Solving for k, Initial residual = 0.00665164, Final residual = 0.000523005, No Iterations 6
ExecutionTime = 0.155429 s  ClockTime = 0 s

Time = 51s

smoothSolver:  Solving for Ux, Initial residual = 0.00487868, Final residual = 0.000416165, No Iterations 5
smoothSolver:  Solving for Uy, Initial residual = 0.0224162, Final residual = 0.00203241, No Iterations 5
Pressure gradient source: uncorrected Ubar = 1.00014, pressure gradient = 1.76677
GAMG:  Solving for p, Initial residual = 0.0234056, Final residual = 0.00117161, No Iterations 4
time step continuity errors : sum local = 1.2077e-05, global = -6.31463e-18, cumulative = -1.01021e-16
Pressure gradient source: uncorrected Ubar = 0.999963, pressure gradient = 1.86514
smoothSolver:  Solving for omega, Initial residual = 0.000364659, Final residual = 2.75074e-05, No Iterations 6
smoothSolver:  Solving for k, Initial residual = 0.00662701, Final residual = 0.000519751, No Iterations 6
ExecutionTime = 0.158017 s  ClockTime = 0 s

Time = 52s

smoothSolver:  Solving for Ux, Initial residual = 0.00479946, Final residual = 0.000410515, No Iterations 5
smoothSolver:  Solving for Uy, Initial residual = 0.0229923, Final residual = 0.00208262, No Iterations 5
Pressure gradient source: uncorrected Ubar = 1.00011, pressure gradient = 1.80264
GAMG:  Solving for p, Initial residual = 0.0169164, Final residual = 0.00146656, No Iterations 4
time step continuity errors : sum local = 1.62956e-05, global = 2.90583e-17, cumulative = -7.19629e-17
Pressure gradient source: uncorrected Ubar = 0.999959, pressure gradient = 1.88888
smoothSolver:  Solving for omega, Initial residual = 0.000354275, Final residual = 2.64835e-05, No Iterations 6
smoothSolver:  Solving for k, Initial residual = 0.00659987, Final residual = 0.000522008, No Iterations 6
ExecutionTime = 0.160584 s  ClockTime = 0 s

Time = 53s

smoothSolver:  Solving for Ux, Initial residual = 0.00472113, Final residual = 0.000405269, No Iterations 5
smoothSolver:  Solving for Uy, Initial residual = 0.0223561, Final residual = 0.00195362, No Iterations 5
Pressure gradient source: uncorrected Ubar = 1.0001, pressure gradient = 1.83151
GAMG:  Solving for p, Initial residual = 0.0130336, Final residual = 0.0012917, No Iterations 4
time step continuity errors : sum local = 1.28133e-05, global = 2.15052e-17, cumulative = -5.04577e-17
Pressure gradient source: uncorrected Ubar = 0.999958, pressure gradient = 1.91413
smoothSolver:  Solving for omega, Initial residual = 0.000343039, Final residual = 2.56766e-05, No Iterations 6
smoothSolver:  Solving for k, Initial residual = 0.00656846, Final residual = 0.000518372, No Iterations 6
ExecutionTime = 0.163183 s  ClockTime = 0 s

Time = 54s

smoothSolver:  Solving for Ux, Initial residual = 0.00464506, Final residual = 0.0004001, No Iterations 5
smoothSolver:  Solving for Uy, Initial residual = 0.0202789, Final residual = 0.00185049, No Iterations 5
Pressure gradient source: uncorrected Ubar = 1.00011, pressure gradient = 1.84335
GAMG:  Solving for p, Initial residual = 0.0131596, Final residual = 0.00116872, No Iterations 3
time step continuity errors : sum local = 1.33301e-05, global = -5.36553e-18, cumulative = -5.58233e-17
Pressure gradient source: uncorrected Ubar = 0.999961, pressure gradient = 1.93845
smoothSolver:  Solving for omega, Initial residual = 0.000333931, Final residual = 2.50711e-05, No Iterations 6
smoothSolver:  Solving for k, Initial residual = 0.00652744, Final residual = 0.000519174, No Iterations 6
ExecutionTime = 0.165704 s  ClockTime = 0 s

Time = 55s

smoothSolver:  Solving for Ux, Initial residual = 0.00457265, Final residual = 0.00039516, No Iterations 5
smoothSolver:  Solving for Uy, Initial residual = 0.0191257, Final residual = 0.00173101, No Iterations 5
Pressure gradient source: uncorrected Ubar = 1.00015, pressure gradient = 1.84367
GAMG:  Solving for p, Initial residual = 0.0120538, Final residual = 0.000898516, No Iterations 3
time step continuity errors : sum local = 1.10249e-05, global = -7.45876e-18, cumulative = -6.3282e-17
Pressure gradient source: uncorrected Ubar = 0.999966, pressure gradient = 1.96035
smoothSolver:  Solving for omega, Initial residual = 0.000323477, Final residual = 2.48537e-05, No Iterations 6
smoothSolver:  Solving for k, Initial residual = 0.00648517, Final residual = 0.000512994, No Iterations 6
ExecutionTime = 0.168224 s  ClockTime = 0 s

Time = 56s

smoothSolver:  Solving for Ux, Initial residual = 0.00450455, Final residual = 0.000390376, No Iterations 5
smoothSolver:  Solving for Uy, Initial residual = 0.0190898, Final residual = 0.00175197, No Iterations 5
Pressure gradient source: uncorrected Ubar = 1.00017, pressure gradient = 1.84662
GAMG:  Solving for p, Initial residual = 0.0100896, Final residual = 0.000781633, No Iterations 6
time step continuity errors : sum local = 8.27517e-06, global = 1.29461e-17, cumulative = -5.0336e-17
Pressure gradient source: uncorrected Ubar = 0.99997, pressure gradient = 1.98042
smoothSolver:  Solving for omega, Initial residual = 0.000313594, Final residual = 2.35026e-05, No Iterations 6
smoothSolver:  Solving for k, Initial residual = 0.00645737, Final residual = 0.000514913, No Iterations 6
ExecutionTime = 0.170904 s  ClockTime = 0 s

Time = 57s

smoothSolver:  Solving for Ux, Initial residual = 0.00443971, Final residual = 0.00038621, No Iterations 5
smoothSolver:  Solving for Uy, Initial residual = 0.0195292, Final residual = 0.00181814, No Iterations 5
Pressure gradient source: uncorrected Ubar = 1.00018, pressure gradient = 1.85622
GAMG:  Solving for p, Initial residual = 0.0136134, Final residual = 0.00123744, No Iterations 4
time step continuity errors : sum local = 1.46253e-05, global = 2.93332e-17, cumulative = -2.10028e-17
Pressure gradient source: uncorrected Ubar = 0.999972, pressure gradient = 1.99983
smoothSolver:  Solving for omega, Initial residual = 0.000304508, Final residual = 2.31707e-05, No Iterations 6
smoothSolver:  Solving for k, Initial residual = 0.00642247, Final residual = 0.000512711, No Iterations 6
ExecutionTime = 0.173501 s  ClockTime = 0 s

Time = 58s

smoothSolver:  Solving for Ux, Initial residual = 0.00437849, Final residual = 0.00038206, No Iterations 5
smoothSolver:  Solving for Uy, Initial residual = 0.0185258, Final residual = 0.00171378, No Iterations 5
Pressure gradient source: uncorrected Ubar = 1.00021, pressure gradient = 1.84829
GAMG:  Solving for p, Initial residual = 0.00990321, Final residual = 0.000959349, No Iterations 5
time step continuity errors : sum local = 1.37791e-05, global = 3.38775e-17, cumulative = 1.28747e-17
Pressure gradient source: uncorrected Ubar = 0.999977, pressure gradient = 2.01623
smoothSolver:  Solving for omega, Initial residual = 0.000296656, Final residual = 2.23905e-05, No Iterations 6
smoothSolver:  Solving for k, Initial residual = 0.00640232, Final residual = 0.000513263, No Iterations 6
ExecutionTime = 0.176127 s  ClockTime = 0 s

Time = 59s

smoothSolver:  Solving for Ux, Initial residual = 0.00431894, Final residual = 0.000378018, No Iterations 5
smoothSolver:  Solving for Uy, Initial residual = 0.016185, Final residual = 0.0014364, No Iterations 5
Pressure gradient source: uncorrected Ubar = 1.00023, pressure gradient = 1.84721
GAMG:  Solving for p, Initial residual = 0.00702176, Final residual = 0.00067528, No Iterations 6
time step continuity errors : sum local = 1.00851e-05, global = -2.84434e-18, cumulative = 1.00304e-17
Pressure gradient source: uncorrected Ubar = 0.99998, pressure gradient = 2.03092
smoothSolver:  Solving for omega, Initial residual = 0.000288299, Final residual = 2.19373e-05, No Iterations 6
smoothSolver:  Solving for k, Initial residual = 0.00636926, Final residual = 0.000508809, No Iterations 6
ExecutionTime = 0.178794 s  ClockTime = 0 s

Time = 60s

smoothSolver:  Solving for Ux, Initial residual = 0.00426211, Final residual = 0.000374172, No Iterations 5
smoothSolver:  Solving for Uy, Initial residual = 0.01543, Final residual = 0.00140307, No Iterations 5
Pressure gradient source: uncorrected Ubar = 1.00025, pressure gradient = 1.8414
GAMG:  Solving for p, Initial residual = 0.00733786, Final residual = 0.000733644, No Iterations 7
time step continuity errors : sum local = 1.1391e-05, global = -2.25529e-17, cumulative = -1.25225e-17
Pressure gradient source: uncorrected Ubar = 0.999984, pressure gradient = 2.04344
smoothSolver:  Solving for omega, Initial residual = 0.000280425, Final residual = 2.13024e-05, No Iterations 6
smoothSolver:  Solving for k, Initial residual = 0.00634704, Final residual = 0.00051243, No Iterations 6
ExecutionTime = 0.181554 s  ClockTime = 0 s

Time = 61s

smoothSolver:  Solving for Ux, Initial residual = 0.00421035, Final residual = 0.000370775, No Iterations 5
smoothSolver:  Solving for Uy, Initial residual = 0.0156721, Final residual = 0.0014589, No Iterations 5
Pressure gradient source: uncorrected Ubar = 1.00027, pressure gradient = 1.83154
GAMG:  Solving for p, Initial residual = 0.00617171, Final residual = 0.000591938, No Iterations 7
time step continuity errors : sum local = 1.00241e-05, global = -3.65658e-17, cumulative = -4.90883e-17
Pressure gradient source: uncorrected Ubar = 0.999987, pressure gradient = 2.05346
smoothSolver:  Solving for omega, Initial residual = 0.000272546, Final residual = 2.06767e-05, No Iterations 6
smoothSolver:  Solving for k, Initial residual = 0.0063264, Final residual = 0.000511826, No Iterations 6
ExecutionTime = 0.184254 s  ClockTime = 0 s

Time = 62s

smoothSolver:  Solving for Ux, Initial residual = 0.00415962, Final residual = 0.000367539, No Iterations 5
smoothSolver:  Solving for Uy, Initial residual = 0.0142195, Final residual = 0.00136143, No Iterations 5
Pressure gradient source: uncorrected Ubar = 1.00028, pressure gradient = 1.82552
GAMG:  Solving for p, Initial residual = 0.00527935, Final residual = 0.000399238, No Iterations 5
time step continuity errors : sum local = 6.83993e-06, global = -5.14678e-18, cumulative = -5.42351e-17
Pressure gradient source: uncorrected Ubar = 0.99999, pressure gradient = 2.06185
smoothSolver:  Solving for omega, Initial residual = 0.000265598, Final residual = 2.05153e-05, No Iterations 6
smoothSolver:  Solving for k, Initial residual = 0.00629483, Final residual = 0.000507806, No Iterations 6
ExecutionTime = 0.186865 s  ClockTime = 1 s

Time = 63s

smoothSolver:  Solving for Ux, Initial residual = 0.0041108, Final residual = 0.000364383, No Iterations 5
smoothSolver:  Solving for Uy, Initial residual = 0.0143179, Final residual = 0.00138806, No Iterations 5
Pressure gradient source: uncorrected Ubar = 1.0003, pressure gradient = 1.81347
GAMG:  Solving for p, Initial residual = 0.00611473, Final residual = 0.000472424, No Iterations 5
time step continuity errors : sum local = 6.94596e-06, global = -1.2559e-17, cumulative = -6.6794e-17
Pressure gradient source: uncorrected Ubar = 0.999993, pressure gradient = 2.06794
smoothSolver:  Solving for omega, Initial residual = 0.000258582, Final residual = 1.97233e-05, No Iterations 6
smoothSolver:  Solving for k, Initial residual = 0.00625988, Final residual = 0.000510386, No Iterations 6
ExecutionTime = 0.189498 s  ClockTime = 1 s

Time = 64s

smoothSolver:  Solving for Ux, Initial residual = 0.00406447, Final residual = 0.000361297, No Iterations 5
smoothSolver:  Solving for Uy, Initial residual = 0.0149785, Final residual = 0.000975928, No Iterations 6
Pressure gradient source: uncorrected Ubar = 1.00032, pressure gradient = 1.79741
GAMG:  Solving for p, Initial residual = 0.0085543, Final residual = 0.000764466, No Iterations 4
time step continuity errors : sum local = 9.73008e-06, global = -9.87153e-18, cumulative = -7.66656e-17
Pressure gradient source: uncorrected Ubar = 0.999996, pressure gradient = 2.07143
smoothSolver:  Solving for omega, Initial residual = 0.000252348, Final residual = 1.92024e-05, No Iterations 6
smoothSolver:  Solving for k, Initial residual = 0.00622112, Final residual = 0.000501522, No Iterations 6
ExecutionTime = 0.192098 s  ClockTime = 1 s

Time = 65s

smoothSolver:  Solving for Ux, Initial residual = 0.00401996, Final residual = 0.000358327, No Iterations 5
smoothSolver:  Solving for Uy, Initial residual = 0.0148119, Final residual = 0.00102625, No Iterations 6
Pressure gradient source: uncorrected Ubar = 1.00033, pressure gradient = 1.78571
GAMG:  Solving for p, Initial residual = 0.00698962, Final residual = 0.00068398, No Iterations 8
time step continuity errors : sum local = 9.07308e-06, global = -2.62102e-17, cumulative = -1.02876e-16
Pressure gradient source: uncorrected Ubar = 0.999998, pressure gradient = 2.07321
smoothSolver:  Solving for omega, Initial residual = 0.000246863, Final residual = 1.86215e-05, No Iterations 6
smoothSolver:  Solving for k, Initial residual = 0.00621568, Final residual = 0.00050803, No Iterations 6
ExecutionTime = 0.194866 s  ClockTime = 1 s

Time = 66s

smoothSolver:  Solving for Ux, Initial residual = 0.00397825, Final residual = 0.000355747, No Iterations 5
smoothSolver:  Solving for Uy, Initial residual = 0.0174093, Final residual = 0.0012905, No Iterations 6
Pressure gradient source: uncorrected Ubar = 1.00034, pressure gradient = 1.76853
GAMG:  Solving for p, Initial residual = 0.00649116, Final residual = 0.000578072, No Iterations 12
time step continuity errors : sum local = 7.69877e-06, global = 1.1019e-17, cumulative = -9.18567e-17
Pressure gradient source: uncorrected Ubar = 1, pressure gradient = 2.07273
smoothSolver:  Solving for omega, Initial residual = 0.00024239, Final residual = 1.85918e-05, No Iterations 6
smoothSolver:  Solving for k, Initial residual = 0.0061739, Final residual = 0.000503319, No Iterations 6
ExecutionTime = 0.197858 s  ClockTime = 1 s

Time = 67s

smoothSolver:  Solving for Ux, Initial residual = 0.00393767, Final residual = 0.000353282, No Iterations 5
smoothSolver:  Solving for Uy, Initial residual = 0.0176637, Final residual = 0.00131248, No Iterations 6
Pressure gradient source: uncorrected Ubar = 1.00034, pressure gradient = 1.75626
GAMG:  Solving for p, Initial residual = 0.00767862, Final residual = 0.000673137, No Iterations 7
time step continuity errors : sum local = 8.30041e-06, global = -3.60366e-17, cumulative = -1.27893e-16
Pressure gradient source: uncorrected Ubar = 1, pressure gradient = 2.07092
smoothSolver:  Solving for omega, Initial residual = 0.000237867, Final residual = 1.82724e-05, No Iterations 6
smoothSolver:  Solving for k, Initial residual = 0.00614133, Final residual = 0.000500259, No Iterations 6
ExecutionTime = 0.200573 s  ClockTime = 1 s

Time = 68s

smoothSolver:  Solving for Ux, Initial residual = 0.00389815, Final residual = 0.000350873, No Iterations 5
smoothSolver:  Solving for Uy, Initial residual = 0.0172803, Final residual = 0.00127401, No Iterations 6
Pressure gradient source: uncorrected Ubar = 1.00035, pressure gradient = 1.73803
GAMG:  Solving for p, Initial residual = 0.00677753, Final residual = 0.000672358, No Iterations 5
time step continuity errors : sum local = 8.06385e-06, global = -9.51091e-18, cumulative = -1.37404e-16
Pressure gradient source: uncorrected Ubar = 1, pressure gradient = 2.06709
smoothSolver:  Solving for omega, Initial residual = 0.00023318, Final residual = 1.78138e-05, No Iterations 6
smoothSolver:  Solving for k, Initial residual = 0.00611758, Final residual = 0.000498824, No Iterations 6
ExecutionTime = 0.203351 s  ClockTime = 1 s

Time = 69s

smoothSolver:  Solving for Ux, Initial residual = 0.00386003, Final residual = 0.000348453, No Iterations 5
smoothSolver:  Solving for Uy, Initial residual = 0.0176179, Final residual = 0.00132169, No Iterations 6
Pressure gradient source: uncorrected Ubar = 1.00036, pressure gradient = 1.71742
GAMG:  Solving for p, Initial residual = 0.00860151, Final residual = 0.000746255, No Iterations 12
time step continuity errors : sum local = 7.54084e-06, global = 2.99572e-17, cumulative = -1.07447e-16
Pressure gradient source: uncorrected Ubar = 1.00001, pressure gradient = 2.06118
smoothSolver:  Solving for omega, Initial residual = 0.000228648, Final residual = 1.74229e-05, No Iterations 6
smoothSolver:  Solving for k, Initial residual = 0.00608822, Final residual = 0.00050233, No Iterations 6
ExecutionTime = 0.206326 s  ClockTime = 1 s

Time = 70s

smoothSolver:  Solving for Ux, Initial residual = 0.00382315, Final residual = 0.000346093, No Iterations 5
smoothSolver:  Solving for Uy, Initial residual = 0.0194766, Final residual = 0.00147766, No Iterations 6
Pressure gradient source: uncorrected Ubar = 1.00037, pressure gradient = 1.69734
GAMG:  Solving for p, Initial residual = 0.00875807, Final residual = 0.000853502, No Iterations 7
time step continuity errors : sum local = 7.61826e-06, global = 3.1319e-18, cumulative = -1.04315e-16
Pressure gradient source: uncorrected Ubar = 1.00001, pressure gradient = 2.05348
smoothSolver:  Solving for omega, Initial residual = 0.000224273, Final residual = 1.72315e-05, No Iterations 6
smoothSolver:  Solving for k, Initial residual = 0.00605137, Final residual = 0.000494798, No Iterations 6
ExecutionTime = 0.209053 s  ClockTime = 1 s

Time = 71s

smoothSolver:  Solving for Ux, Initial residual = 0.00378884, Final residual = 0.000343968, No Iterations 5
smoothSolver:  Solving for Uy, Initial residual = 0.0194976, Final residual = 0.00147777, No Iterations 6
Pressure gradient source: uncorrected Ubar = 1.00037, pressure gradient = 1.68025
GAMG:  Solving for p, Initial residual = 0.0095517, Final residual = 0.000787013, No Iterations 7
time step continuity errors : sum local = 6.18199e-06, global = 1.34661e-17, cumulative = -9.08489e-17
Pressure gradient source: uncorrected Ubar = 1.00001, pressure gradient = 2.04463
smoothSolver:  Solving for omega, Initial residual = 0.000219789, Final residual = 1.68492e-05, No Iterations 6
smoothSolver:  Solving for k, Initial residual = 0.00603652, Final residual = 0.000497976, No Iterations 6
ExecutionTime = 0.211791 s  ClockTime = 1 s

Time = 72s

smoothSolver:  Solving for Ux, Initial residual = 0.003755, Final residual = 0.000342031, No Iterations 5
smoothSolver:  Solving for Uy, Initial residual = 0.0194482, Final residual = 0.00151292, No Iterations 6
Pressure gradient source: uncorrected Ubar = 1.00038, pressure gradient = 1.65683
GAMG:  Solving for p, Initial residual = 0.0123566, Final residual = 0.00115132, No Iterations 9
time step continuity errors : sum local = 6.91782e-06, global = -2.71673e-17, cumulative = -1.18016e-16
Pressure gradient source: uncorrected Ubar = 1.00001, pressure gradient = 2.03386
smoothSolver:  Solving for omega, Initial residual = 0.000215462, Final residual = 1.65366e-05, No Iterations 6
smoothSolver:  Solving for k, Initial residual = 0.00599782, Final residual = 0.000493279, No Iterations 6
ExecutionTime = 0.214747 s  ClockTime = 1 s

Time = 73s

smoothSolver:  Solving for Ux, Initial residual = 0.00372269, Final residual = 0.000340132, No Iterations 5
smoothSolver:  Solving for Uy, Initial residual = 0.0179813, Final residual = 0.00141294, No Iterations 6
Pressure gradient source: uncorrected Ubar = 1.00038, pressure gradient = 1.63867
GAMG:  Solving for p, Initial residual = 0.0116015, Final residual = 0.00112894, No Iterations 5
time step continuity errors : sum local = 6.15814e-06, global = -7.18919e-19, cumulative = -1.18735e-16
Pressure gradient source: uncorrected Ubar = 1.00001, pressure gradient = 2.02214
smoothSolver:  Solving for omega, Initial residual = 0.000211217, Final residual = 1.61899e-05, No Iterations 6
smoothSolver:  Solving for k, Initial residual = 0.00596133, Final residual = 0.000492098, No Iterations 6
ExecutionTime = 0.217473 s  ClockTime = 1 s

Time = 74s

smoothSolver:  Solving for Ux, Initial residual = 0.00369119, Final residual = 0.000338322, No Iterations 5
smoothSolver:  Solving for Uy, Initial residual = 0.0183621, Final residual = 0.00143305, No Iterations 6
Pressure gradient source: uncorrected Ubar = 1.00038, pressure gradient = 1.61423
GAMG:  Solving for p, Initial residual = 0.0160664, Final residual = 0.00143366, No Iterations 11
time step continuity errors : sum local = 5.73074e-06, global = -1.59003e-17, cumulative = -1.34635e-16
Pressure gradient source: uncorrected Ubar = 1.00001, pressure gradient = 2.00871
smoothSolver:  Solving for omega, Initial residual = 0.00020692, Final residual = 1.58999e-05, No Iterations 6
smoothSolver:  Solving for k, Initial residual = 0.0059305, Final residual = 0.000490588, No Iterations 6
ExecutionTime = 0.220422 s  ClockTime = 1 s

Time = 75s

smoothSolver:  Solving for Ux, Initial residual = 0.00366131, Final residual = 0.000336492, No Iterations 5
smoothSolver:  Solving for Uy, Initial residual = 0.0192434, Final residual = 0.00143635, No Iterations 6
Pressure gradient source: uncorrected Ubar = 1.00038, pressure gradient = 1.5901
GAMG:  Solving for p, Initial residual = 0.0210129, Final residual = 0.00178939, No Iterations 6
time step continuity errors : sum local = 6.4758e-06, global = 9.36776e-18, cumulative = -1.25268e-16
Pressure gradient source: uncorrected Ubar = 1.00001, pressure gradient = 1.9938
smoothSolver:  Solving for omega, Initial residual = 0.000202961, Final residual = 1.56182e-05, No Iterations 6
smoothSolver:  Solving for k, Initial residual = 0.00589978, Final residual = 0.000489016, No Iterations 6
ExecutionTime = 0.223115 s  ClockTime = 1 s

Time = 76s

smoothSolver:  Solving for Ux, Initial residual = 0.00363251, Final residual = 0.000334791, No Iterations 5
smoothSolver:  Solving for Uy, Initial residual = 0.0209079, Final residual = 0.00157692, No Iterations 6
Pressure gradient source: uncorrected Ubar = 1.00038, pressure gradient = 1.57077
GAMG:  Solving for p, Initial residual = 0.0249986, Final residual = 0.00200569, No Iterations 7
time step continuity errors : sum local = 5.64151e-06, global = 2.0351e-17, cumulative = -1.04917e-16
Pressure gradient source: uncorrected Ubar = 1.00001, pressure gradient = 1.9783
smoothSolver:  Solving for omega, Initial residual = 0.000199563, Final residual = 1.55582e-05, No Iterations 6
smoothSolver:  Solving for k, Initial residual = 0.0058792, Final residual = 0.000487008, No Iterations 6
ExecutionTime = 0.225863 s  ClockTime = 1 s

Time = 77s

smoothSolver:  Solving for Ux, Initial residual = 0.00360523, Final residual = 0.000333278, No Iterations 5
smoothSolver:  Solving for Uy, Initial residual = 0.0194755, Final residual = 0.00147438, No Iterations 6
Pressure gradient source: uncorrected Ubar = 1.00038, pressure gradient = 1.54418
GAMG:  Solving for p, Initial residual = 0.0562609, Final residual = 0.00489122, No Iterations 12
time step continuity errors : sum local = 4.60012e-06, global = 9.43277e-18, cumulative = -9.54839e-17
Pressure gradient source: uncorrected Ubar = 1.00002, pressure gradient = 1.96122
smoothSolver:  Solving for omega, Initial residual = 0.000195962, Final residual = 1.51584e-05, No Iterations 6
smoothSolver:  Solving for k, Initial residual = 0.00583825, Final residual = 0.00048532, No Iterations 6
ExecutionTime = 0.228832 s  ClockTime = 1 s

Time = 78s

smoothSolver:  Solving for Ux, Initial residual = 0.00357844, Final residual = 0.000331841, No Iterations 5
smoothSolver:  Solving for Uy, Initial residual = 0.0173324, Final residual = 0.00134398, No Iterations 6
Pressure gradient source: uncorrected Ubar = 1.00038, pressure gradient = 1.52103
GAMG:  Solving for p, Initial residual = 0.0247302, Final residual = 0.00218776, No Iterations 9
time step continuity errors : sum local = 5.26554e-06, global = -3.08913e-18, cumulative = -9.8573e-17
Pressure gradient source: uncorrected Ubar = 1.00002, pressure gradient = 1.94325
smoothSolver:  Solving for omega, Initial residual = 0.000192629, Final residual = 1.49652e-05, No Iterations 6
smoothSolver:  Solving for k, Initial residual = 0.00580788, Final residual = 0.00048409, No Iterations 6
ExecutionTime = 0.231655 s  ClockTime = 1 s

Time = 79s

smoothSolver:  Solving for Ux, Initial residual = 0.00355224, Final residual = 0.000330417, No Iterations 5
smoothSolver:  Solving for Uy, Initial residual = 0.0174615, Final residual = 0.00133405, No Iterations 6
Pressure gradient source: uncorrected Ubar = 1.00038, pressure gradient = 1.49894
GAMG:  Solving for p, Initial residual = 0.0189428, Final residual = 0.00183325, No Iterations 6
time step continuity errors : sum local = 5.16004e-06, global = 1.59479e-17, cumulative = -8.26251e-17
Pressure gradient source: uncorrected Ubar = 1.00002, pressure gradient = 1.92467
smoothSolver:  Solving for omega, Initial residual = 0.000189988, Final residual = 1.46266e-05, No Iterations 6
smoothSolver:  Solving for k, Initial residual = 0.00577917, Final residual = 0.000479636, No Iterations 6
ExecutionTime = 0.234331 s  ClockTime = 1 s

Time = 80s

smoothSolver:  Solving for Ux, Initial residual = 0.00352716, Final residual = 0.000329038, No Iterations 5
smoothSolver:  Solving for Uy, Initial residual = 0.0148942, Final residual = 0.0010884, No Iterations 6
Pressure gradient source: uncorrected Ubar = 1.00038, pressure gradient = 1.47056
GAMG:  Solving for p, Initial residual = 0.0130467, Final residual = 0.00114087, No Iterations 8
time step continuity errors : sum local = 4.9983e-06, global = -1.46748e-18, cumulative = -8.40926e-17
Pressure gradient source: uncorrected Ubar = 1.00002, pressure gradient = 1.90464
smoothSolver:  Solving for omega, Initial residual = 0.000188152, Final residual = 1.4664e-05, No Iterations 6
smoothSolver:  Solving for k, Initial residual = 0.00574908, Final residual = 0.000480982, No Iterations 6
ExecutionTime = 0.237088 s  ClockTime = 1 s

Time = 81s

smoothSolver:  Solving for Ux, Initial residual = 0.00350296, Final residual = 0.000327641, No Iterations 5
smoothSolver:  Solving for Uy, Initial residual = 0.0135952, Final residual = 0.000987987, No Iterations 6
Pressure gradient source: uncorrected Ubar = 1.00038, pressure gradient = 1.44518
GAMG:  Solving for p, Initial residual = 0.00935019, Final residual = 0.000868215, No Iterations 6
time step continuity errors : sum local = 4.60366e-06, global = -2.47757e-19, cumulative = -8.43403e-17
Pressure gradient source: uncorrected Ubar = 1.00002, pressure gradient = 1.88379
smoothSolver:  Solving for omega, Initial residual = 0.000186195, Final residual = 1.44359e-05, No Iterations 6
smoothSolver:  Solving for k, Initial residual = 0.00571161, Final residual = 0.000476979, No Iterations 6
ExecutionTime = 0.239771 s  ClockTime = 1 s

Time = 82s

smoothSolver:  Solving for Ux, Initial residual = 0.00347997, Final residual = 0.000326415, No Iterations 5
smoothSolver:  Solving for Uy, Initial residual = 0.0131612, Final residual = 0.000977444, No Iterations 6
Pressure gradient source: uncorrected Ubar = 1.00038, pressure gradient = 1.41709
GAMG:  Solving for p, Initial residual = 0.00626131, Final residual = 0.000565042, No Iterations 8
time step continuity errors : sum local = 3.59658e-06, global = -7.44944e-18, cumulative = -9.17898e-17
Pressure gradient source: uncorrected Ubar = 1.00002, pressure gradient = 1.86184
smoothSolver:  Solving for omega, Initial residual = 0.000184353, Final residual = 1.4417e-05, No Iterations 6
smoothSolver:  Solving for k, Initial residual = 0.00569257, Final residual = 0.000476775, No Iterations 6
ExecutionTime = 0.242543 s  ClockTime = 1 s

Time = 83s

smoothSolver:  Solving for Ux, Initial residual = 0.00345828, Final residual = 0.000325345, No Iterations 5
smoothSolver:  Solving for Uy, Initial residual = 0.0124112, Final residual = 0.000911261, No Iterations 6
Pressure gradient source: uncorrected Ubar = 1.00038, pressure gradient = 1.39004
GAMG:  Solving for p, Initial residual = 0.00620402, Final residual = 0.000525519, No Iterations 6
time step continuity errors : sum local = 3.7926e-06, global = -9.50212e-18, cumulative = -1.01292e-16
Pressure gradient source: uncorrected Ubar = 1.00002, pressure gradient = 1.83907
smoothSolver:  Solving for omega, Initial residual = 0.000182542, Final residual = 1.41037e-05, No Iterations 6
smoothSolver:  Solving for k, Initial residual = 0.00565263, Final residual = 0.000472656, No Iterations 6
ExecutionTime = 0.24521 s  ClockTime = 1 s

Time = 84s

smoothSolver:  Solving for Ux, Initial residual = 0.00343726, Final residual = 0.000324325, No Iterations 5
smoothSolver:  Solving for Uy, Initial residual = 0.00993931, Final residual = 0.000727133, No Iterations 6
Pressure gradient source: uncorrected Ubar = 1.00037, pressure gradient = 1.36798
GAMG:  Solving for p, Initial residual = 0.00436015, Final residual = 0.000405098, No Iterations 3
time step continuity errors : sum local = 2.84917e-06, global = -1.95581e-17, cumulative = -1.2085e-16
Pressure gradient source: uncorrected Ubar = 1.00002, pressure gradient = 1.81635
smoothSolver:  Solving for omega, Initial residual = 0.00018115, Final residual = 1.41562e-05, No Iterations 6
smoothSolver:  Solving for k, Initial residual = 0.00562476, Final residual = 0.000471481, No Iterations 6
ExecutionTime = 0.24774 s  ClockTime = 1 s

Time = 85s

smoothSolver:  Solving for Ux, Initial residual = 0.00341678, Final residual = 0.000323325, No Iterations 5
smoothSolver:  Solving for Uy, Initial residual = 0.0106547, Final residual = 0.000784355, No Iterations 6
Pressure gradient source: uncorrected Ubar = 1.00038, pressure gradient = 1.3379
GAMG:  Solving for p, Initial residual = 0.00364549, Final residual = 0.000343598, No Iterations 6
time step continuity errors : sum local = 2.52194e-06, global = -1.07043e-19, cumulative = -1.20957e-16
Pressure gradient source: uncorrected Ubar = 1.00002, pressure gradient = 1.79246
smoothSolver:  Solving for omega, Initial residual = 0.000179307, Final residual = 1.37616e-05, No Iterations 6
smoothSolver:  Solving for k, Initial residual = 0.00559757, Final residual = 0.000471599, No Iterations 6
ExecutionTime = 0.250459 s  ClockTime = 1 s

Time = 86s

smoothSolver:  Solving for Ux, Initial residual = 0.00339737, Final residual = 0.000322365, No Iterations 5
smoothSolver:  Solving for Uy, Initial residual = 0.0116414, Final residual = 0.000827624, No Iterations 6
Pressure gradient source: uncorrected Ubar = 1.00038, pressure gradient = 1.30432
GAMG:  Solving for p, Initial residual = 0.00419773, Final residual = 0.000310568, No Iterations 6
time step continuity errors : sum local = 2.44988e-06, global = 1.8657e-18, cumulative = -1.19091e-16
Pressure gradient source: uncorrected Ubar = 1.00002, pressure gradient = 1.76704
smoothSolver:  Solving for omega, Initial residual = 0.000177904, Final residual = 1.3826e-05, No Iterations 6
smoothSolver:  Solving for k, Initial residual = 0.00554947, Final residual = 0.000463714, No Iterations 6
ExecutionTime = 0.253126 s  ClockTime = 1 s

Time = 87s

smoothSolver:  Solving for Ux, Initial residual = 0.00337804, Final residual = 0.000321336, No Iterations 5
smoothSolver:  Solving for Uy, Initial residual = 0.00984122, Final residual = 0.00071466, No Iterations 6
Pressure gradient source: uncorrected Ubar = 1.00037, pressure gradient = 1.28413
GAMG:  Solving for p, Initial residual = 0.00399136, Final residual = 0.000348353, No Iterations 5
time step continuity errors : sum local = 2.55494e-06, global = -1.37202e-17, cumulative = -1.32812e-16
Pressure gradient source: uncorrected Ubar = 1.00002, pressure gradient = 1.74232
smoothSolver:  Solving for omega, Initial residual = 0.000176478, Final residual = 1.37043e-05, No Iterations 6
smoothSolver:  Solving for k, Initial residual = 0.00553032, Final residual = 0.000465573, No Iterations 6
ExecutionTime = 0.255745 s  ClockTime = 1 s

Time = 88s

smoothSolver:  Solving for Ux, Initial residual = 0.00335918, Final residual = 0.000320378, No Iterations 5
smoothSolver:  Solving for Uy, Initial residual = 0.00850304, Final residual = 0.000633587, No Iterations 6
Pressure gradient source: uncorrected Ubar = 1.00037, pressure gradient = 1.2552
GAMG:  Solving for p, Initial residual = 0.00309387, Final residual = 0.000260766, No Iterations 6
time step continuity errors : sum local = 2.36827e-06, global = -7.58147e-18, cumulative = -1.40393e-16
Pressure gradient source: uncorrected Ubar = 1.00002, pressure gradient = 1.71688
smoothSolver:  Solving for omega, Initial residual = 0.000175078, Final residual = 1.36392e-05, No Iterations 6
smoothSolver:  Solving for k, Initial residual = 0.00550749, Final residual = 0.000464816, No Iterations 6
ExecutionTime = 0.258421 s  ClockTime = 1 s

Time = 89s

smoothSolver:  Solving for Ux, Initial residual = 0.00334122, Final residual = 0.000319625, No Iterations 5
smoothSolver:  Solving for Uy, Initial residual = 0.00853139, Final residual = 0.000612919, No Iterations 6
Pressure gradient source: uncorrected Ubar = 1.00037, pressure gradient = 1.22441
GAMG:  Solving for p, Initial residual = 0.00327512, Final residual = 0.000281024, No Iterations 4
time step continuity errors : sum local = 2.48881e-06, global = 2.47201e-18, cumulative = -1.37921e-16
Pressure gradient source: uncorrected Ubar = 1.00002, pressure gradient = 1.69054
[...]
smoothSolver:  Solving for k, Initial residual = 6.15114e-06, Final residual = 6.15114e-06, No Iterations 0
ExecutionTime = 6.11334 s  ClockTime = 6 s

Time = 2271s

smoothSolver:  Solving for Ux, Initial residual = 9.24844e-06, Final residual = 9.24844e-06, No Iterations 0
smoothSolver:  Solving for Uy, Initial residual = 0.000149517, Final residual = 1.15524e-05, No Iterations 4
Pressure gradient source: uncorrected Ubar = 1, pressure gradient = 0.00392114
GAMG:  Solving for p, Initial residual = 3.39623e-05, Final residual = 3.29012e-06, No Iterations 8
time step continuity errors : sum local = 3.14656e-10, global = -4.16611e-18, cumulative = -2.09917e-16
Pressure gradient source: uncorrected Ubar = 1, pressure gradient = 0.00392114
smoothSolver:  Solving for omega, Initial residual = 7.16405e-06, Final residual = 7.16405e-06, No Iterations 0
smoothSolver:  Solving for k, Initial residual = 6.05875e-06, Final residual = 6.05875e-06, No Iterations 0
ExecutionTime = 6.11592 s  ClockTime = 6 s

Time = 2272s

smoothSolver:  Solving for Ux, Initial residual = 9.23653e-06, Final residual = 9.23653e-06, No Iterations 0
smoothSolver:  Solving for Uy, Initial residual = 0.000146067, Final residual = 1.12248e-05, No Iterations 4
Pressure gradient source: uncorrected Ubar = 1, pressure gradient = 0.00392114
GAMG:  Solving for p, Initial residual = 3.46742e-05, Final residual = 3.13307e-06, No Iterations 7
time step continuity errors : sum local = 3.04989e-10, global = -3.00034e-18, cumulative = -2.12917e-16
Pressure gradient source: uncorrected Ubar = 1, pressure gradient = 0.00392115
smoothSolver:  Solving for omega, Initial residual = 7.16405e-06, Final residual = 7.16405e-06, No Iterations 0
smoothSolver:  Solving for k, Initial residual = 5.96899e-06, Final residual = 5.96899e-06, No Iterations 0
ExecutionTime = 6.11847 s  ClockTime = 6 s

Time = 2273s

smoothSolver:  Solving for Ux, Initial residual = 9.22464e-06, Final residual = 9.22464e-06, No Iterations 0
smoothSolver:  Solving for Uy, Initial residual = 0.000143058, Final residual = 1.09484e-05, No Iterations 4
Pressure gradient source: uncorrected Ubar = 1, pressure gradient = 0.00392115
GAMG:  Solving for p, Initial residual = 3.37855e-05, Final residual = 3.05978e-06, No Iterations 7
time step continuity errors : sum local = 2.98914e-10, global = 7.26052e-18, cumulative = -2.05657e-16
Pressure gradient source: uncorrected Ubar = 1, pressure gradient = 0.00392115
smoothSolver:  Solving for omega, Initial residual = 7.16405e-06, Final residual = 7.16405e-06, No Iterations 0
smoothSolver:  Solving for k, Initial residual = 5.88087e-06, Final residual = 5.88087e-06, No Iterations 0
ExecutionTime = 6.121 s  ClockTime = 6 s

Time = 2274s

smoothSolver:  Solving for Ux, Initial residual = 9.21275e-06, Final residual = 9.21275e-06, No Iterations 0
smoothSolver:  Solving for Uy, Initial residual = 0.000140187, Final residual = 1.06736e-05, No Iterations 4
Pressure gradient source: uncorrected Ubar = 1, pressure gradient = 0.00392115
GAMG:  Solving for p, Initial residual = 3.32464e-05, Final residual = 2.93907e-06, No Iterations 7
time step continuity errors : sum local = 2.8742e-10, global = 6.32399e-19, cumulative = -2.05025e-16
Pressure gradient source: uncorrected Ubar = 1, pressure gradient = 0.00392115
smoothSolver:  Solving for omega, Initial residual = 7.16405e-06, Final residual = 7.16405e-06, No Iterations 0
smoothSolver:  Solving for k, Initial residual = 5.79288e-06, Final residual = 5.79288e-06, No Iterations 0
ExecutionTime = 6.12353 s  ClockTime = 6 s

Time = 2275s

smoothSolver:  Solving for Ux, Initial residual = 9.20088e-06, Final residual = 9.20088e-06, No Iterations 0
smoothSolver:  Solving for Uy, Initial residual = 0.00013757, Final residual = 1.0415e-05, No Iterations 4
Pressure gradient source: uncorrected Ubar = 1, pressure gradient = 0.00392115
GAMG:  Solving for p, Initial residual = 3.28578e-05, Final residual = 2.77803e-06, No Iterations 7
time step continuity errors : sum local = 2.71604e-10, global = 1.46822e-18, cumulative = -2.03556e-16
Pressure gradient source: uncorrected Ubar = 1, pressure gradient = 0.00392116
smoothSolver:  Solving for omega, Initial residual = 7.16404e-06, Final residual = 7.16404e-06, No Iterations 0
smoothSolver:  Solving for k, Initial residual = 5.70502e-06, Final residual = 5.70502e-06, No Iterations 0
ExecutionTime = 6.12607 s  ClockTime = 6 s

Time = 2276s

smoothSolver:  Solving for Ux, Initial residual = 9.18901e-06, Final residual = 9.18901e-06, No Iterations 0
smoothSolver:  Solving for Uy, Initial residual = 0.000135099, Final residual = 1.01674e-05, No Iterations 4
Pressure gradient source: uncorrected Ubar = 1, pressure gradient = 0.00392116
GAMG:  Solving for p, Initial residual = 3.25472e-05, Final residual = 2.59729e-06, No Iterations 7
time step continuity errors : sum local = 2.5382e-10, global = 1.12462e-19, cumulative = -2.03444e-16
Pressure gradient source: uncorrected Ubar = 1, pressure gradient = 0.00392116
smoothSolver:  Solving for omega, Initial residual = 7.16404e-06, Final residual = 7.16404e-06, No Iterations 0
smoothSolver:  Solving for k, Initial residual = 5.61778e-06, Final residual = 5.61778e-06, No Iterations 0
ExecutionTime = 6.12862 s  ClockTime = 6 s

Time = 2277s

smoothSolver:  Solving for Ux, Initial residual = 9.17716e-06, Final residual = 9.17716e-06, No Iterations 0
smoothSolver:  Solving for Uy, Initial residual = 0.000132597, Final residual = 9.91848e-06, No Iterations 4
Pressure gradient source: uncorrected Ubar = 1, pressure gradient = 0.00392116
GAMG:  Solving for p, Initial residual = 3.22672e-05, Final residual = 2.41128e-06, No Iterations 7
time step continuity errors : sum local = 2.35534e-10, global = -8.15508e-18, cumulative = -2.11599e-16
Pressure gradient source: uncorrected Ubar = 1, pressure gradient = 0.00392117
smoothSolver:  Solving for omega, Initial residual = 7.16404e-06, Final residual = 7.16404e-06, No Iterations 0
smoothSolver:  Solving for k, Initial residual = 5.53729e-06, Final residual = 5.53729e-06, No Iterations 0
ExecutionTime = 6.13115 s  ClockTime = 6 s

Time = 2278s

smoothSolver:  Solving for Ux, Initial residual = 9.16531e-06, Final residual = 9.16531e-06, No Iterations 0
smoothSolver:  Solving for Uy, Initial residual = 0.000130103, Final residual = 9.67604e-06, No Iterations 4
Pressure gradient source: uncorrected Ubar = 1, pressure gradient = 0.00392117
GAMG:  Solving for p, Initial residual = 3.19971e-05, Final residual = 3.08065e-06, No Iterations 5
time step continuity errors : sum local = 2.97126e-10, global = 5.6166e-18, cumulative = -2.05982e-16
Pressure gradient source: uncorrected Ubar = 1, pressure gradient = 0.00392117
smoothSolver:  Solving for omega, Initial residual = 7.16404e-06, Final residual = 7.16404e-06, No Iterations 0
smoothSolver:  Solving for k, Initial residual = 5.46088e-06, Final residual = 5.46088e-06, No Iterations 0
ExecutionTime = 6.13358 s  ClockTime = 6 s

Time = 2279s

smoothSolver:  Solving for Ux, Initial residual = 9.15347e-06, Final residual = 9.15347e-06, No Iterations 0
smoothSolver:  Solving for Uy, Initial residual = 0.000125399, Final residual = 9.43212e-06, No Iterations 4
Pressure gradient source: uncorrected Ubar = 1, pressure gradient = 0.00392117
GAMG:  Solving for p, Initial residual = 3.1608e-05, Final residual = 2.283e-06, No Iterations 7
time step continuity errors : sum local = 2.23317e-10, global = 3.00515e-18, cumulative = -2.02977e-16
Pressure gradient source: uncorrected Ubar = 1, pressure gradient = 0.00392117
smoothSolver:  Solving for omega, Initial residual = 7.16404e-06, Final residual = 7.16404e-06, No Iterations 0
smoothSolver:  Solving for k, Initial residual = 5.39294e-06, Final residual = 5.39294e-06, No Iterations 0
ExecutionTime = 6.13612 s  ClockTime = 6 s

Time = 2280s

smoothSolver:  Solving for Ux, Initial residual = 9.14165e-06, Final residual = 9.14165e-06, No Iterations 0
smoothSolver:  Solving for Uy, Initial residual = 0.000125246, Final residual = 9.28355e-06, No Iterations 4
Pressure gradient source: uncorrected Ubar = 1, pressure gradient = 0.00392117
GAMG:  Solving for p, Initial residual = 3.14276e-05, Final residual = 2.89003e-06, No Iterations 5
time step continuity errors : sum local = 2.77679e-10, global = -6.24958e-18, cumulative = -2.09227e-16
Pressure gradient source: uncorrected Ubar = 1, pressure gradient = 0.00392118
smoothSolver:  Solving for omega, Initial residual = 7.16404e-06, Final residual = 7.16404e-06, No Iterations 0
smoothSolver:  Solving for k, Initial residual = 5.33687e-06, Final residual = 5.33687e-06, No Iterations 0
ExecutionTime = 6.13857 s  ClockTime = 6 s

Time = 2281s

smoothSolver:  Solving for Ux, Initial residual = 9.12983e-06, Final residual = 9.12983e-06, No Iterations 0
smoothSolver:  Solving for Uy, Initial residual = 0.000121134, Final residual = 9.10631e-06, No Iterations 4
Pressure gradient source: uncorrected Ubar = 1, pressure gradient = 0.00392118
GAMG:  Solving for p, Initial residual = 3.10525e-05, Final residual = 3.00452e-06, No Iterations 5
time step continuity errors : sum local = 2.87686e-10, global = -3.04885e-18, cumulative = -2.12276e-16
Pressure gradient source: uncorrected Ubar = 1, pressure gradient = 0.00392118
smoothSolver:  Solving for omega, Initial residual = 7.16404e-06, Final residual = 7.16404e-06, No Iterations 0
smoothSolver:  Solving for k, Initial residual = 5.28726e-06, Final residual = 5.28726e-06, No Iterations 0
ExecutionTime = 6.14101 s  ClockTime = 6 s

Time = 2282s

smoothSolver:  Solving for Ux, Initial residual = 9.11803e-06, Final residual = 9.11803e-06, No Iterations 0
smoothSolver:  Solving for Uy, Initial residual = 0.000118586, Final residual = 8.91877e-06, No Iterations 4
Pressure gradient source: uncorrected Ubar = 1, pressure gradient = 0.00392118
GAMG:  Solving for p, Initial residual = 3.07356e-05, Final residual = 2.99867e-06, No Iterations 5
time step continuity errors : sum local = 2.8593e-10, global = 2.42186e-19, cumulative = -2.12033e-16
Pressure gradient source: uncorrected Ubar = 1, pressure gradient = 0.00392119
smoothSolver:  Solving for omega, Initial residual = 7.16404e-06, Final residual = 7.16404e-06, No Iterations 0
smoothSolver:  Solving for k, Initial residual = 5.24754e-06, Final residual = 5.24754e-06, No Iterations 0
ExecutionTime = 6.14344 s  ClockTime = 6 s

Time = 2283s

smoothSolver:  Solving for Ux, Initial residual = 9.10624e-06, Final residual = 9.10624e-06, No Iterations 0
smoothSolver:  Solving for Uy, Initial residual = 0.000116767, Final residual = 8.76779e-06, No Iterations 4
Pressure gradient source: uncorrected Ubar = 1, pressure gradient = 0.00392119
GAMG:  Solving for p, Initial residual = 3.04511e-05, Final residual = 2.91477e-06, No Iterations 5
time step continuity errors : sum local = 2.76432e-10, global = -2.02234e-18, cumulative = -2.14056e-16
Pressure gradient source: uncorrected Ubar = 1, pressure gradient = 0.00392119
smoothSolver:  Solving for omega, Initial residual = 7.16404e-06, Final residual = 7.16404e-06, No Iterations 0
smoothSolver:  Solving for k, Initial residual = 5.2176e-06, Final residual = 5.2176e-06, No Iterations 0
ExecutionTime = 6.14604 s  ClockTime = 6 s

Time = 2284s

smoothSolver:  Solving for Ux, Initial residual = 9.09445e-06, Final residual = 9.09445e-06, No Iterations 0
smoothSolver:  Solving for Uy, Initial residual = 0.000115173, Final residual = 8.63805e-06, No Iterations 4
Pressure gradient source: uncorrected Ubar = 1, pressure gradient = 0.00392119
GAMG:  Solving for p, Initial residual = 3.01829e-05, Final residual = 2.80432e-06, No Iterations 5
time step continuity errors : sum local = 2.64091e-10, global = 1.10568e-18, cumulative = -2.1295e-16
Pressure gradient source: uncorrected Ubar = 1, pressure gradient = 0.00392119
smoothSolver:  Solving for omega, Initial residual = 7.16404e-06, Final residual = 7.16404e-06, No Iterations 0
smoothSolver:  Solving for k, Initial residual = 5.19332e-06, Final residual = 5.19332e-06, No Iterations 0
ExecutionTime = 6.14861 s  ClockTime = 6 s

Time = 2285s

smoothSolver:  Solving for Ux, Initial residual = 9.08268e-06, Final residual = 9.08268e-06, No Iterations 0
smoothSolver:  Solving for Uy, Initial residual = 0.000113509, Final residual = 8.50621e-06, No Iterations 4
Pressure gradient source: uncorrected Ubar = 1, pressure gradient = 0.00392119
GAMG:  Solving for p, Initial residual = 2.99303e-05, Final residual = 2.69308e-06, No Iterations 5
time step continuity errors : sum local = 2.5146e-10, global = 3.05677e-18, cumulative = -2.09893e-16
Pressure gradient source: uncorrected Ubar = 1, pressure gradient = 0.0039212
smoothSolver:  Solving for omega, Initial residual = 7.16404e-06, Final residual = 7.16404e-06, No Iterations 0
smoothSolver:  Solving for k, Initial residual = 5.1737e-06, Final residual = 5.1737e-06, No Iterations 0
ExecutionTime = 6.15104 s  ClockTime = 6 s

Time = 2286s

smoothSolver:  Solving for Ux, Initial residual = 9.07092e-06, Final residual = 9.07092e-06, No Iterations 0
smoothSolver:  Solving for Uy, Initial residual = 0.00011171, Final residual = 8.36369e-06, No Iterations 4
Pressure gradient source: uncorrected Ubar = 1, pressure gradient = 0.0039212
GAMG:  Solving for p, Initial residual = 2.96859e-05, Final residual = 2.59884e-06, No Iterations 5
time step continuity errors : sum local = 2.40147e-10, global = -2.16832e-18, cumulative = -2.12062e-16
Pressure gradient source: uncorrected Ubar = 1, pressure gradient = 0.0039212
smoothSolver:  Solving for omega, Initial residual = 7.16403e-06, Final residual = 7.16403e-06, No Iterations 0
smoothSolver:  Solving for k, Initial residual = 5.15785e-06, Final residual = 5.15785e-06, No Iterations 0
ExecutionTime = 6.15348 s  ClockTime = 6 s

Time = 2287s

smoothSolver:  Solving for Ux, Initial residual = 9.05917e-06, Final residual = 9.05917e-06, No Iterations 0
smoothSolver:  Solving for Uy, Initial residual = 0.00010987, Final residual = 8.22325e-06, No Iterations 4
Pressure gradient source: uncorrected Ubar = 1, pressure gradient = 0.0039212
GAMG:  Solving for p, Initial residual = 2.9442e-05, Final residual = 2.48879e-06, No Iterations 5
time step continuity errors : sum local = 2.2739e-10, global = 4.60331e-18, cumulative = -2.07458e-16
Pressure gradient source: uncorrected Ubar = 1, pressure gradient = 0.0039212
smoothSolver:  Solving for omega, Initial residual = 7.16403e-06, Final residual = 7.16403e-06, No Iterations 0
smoothSolver:  Solving for k, Initial residual = 5.14584e-06, Final residual = 5.14584e-06, No Iterations 0
ExecutionTime = 6.15594 s  ClockTime = 6 s

Time = 2288s

smoothSolver:  Solving for Ux, Initial residual = 9.04743e-06, Final residual = 9.04743e-06, No Iterations 0
smoothSolver:  Solving for Uy, Initial residual = 0.000108001, Final residual = 8.08273e-06, No Iterations 4
Pressure gradient source: uncorrected Ubar = 1, pressure gradient = 0.0039212
GAMG:  Solving for p, Initial residual = 2.92018e-05, Final residual = 2.39865e-06, No Iterations 5
time step continuity errors : sum local = 2.1628e-10, global = 2.61457e-18, cumulative = -2.04844e-16
Pressure gradient source: uncorrected Ubar = 1, pressure gradient = 0.00392121
smoothSolver:  Solving for omega, Initial residual = 7.16403e-06, Final residual = 7.16403e-06, No Iterations 0
smoothSolver:  Solving for k, Initial residual = 5.13775e-06, Final residual = 5.13775e-06, No Iterations 0
ExecutionTime = 6.15841 s  ClockTime = 6 s

Time = 2289s

smoothSolver:  Solving for Ux, Initial residual = 9.03571e-06, Final residual = 9.03571e-06, No Iterations 0
smoothSolver:  Solving for Uy, Initial residual = 0.000106227, Final residual = 7.95197e-06, No Iterations 4
Pressure gradient source: uncorrected Ubar = 1, pressure gradient = 0.00392121
GAMG:  Solving for p, Initial residual = 2.89662e-05, Final residual = 2.31717e-06, No Iterations 5
time step continuity errors : sum local = 2.05841e-10, global = 1.35909e-18, cumulative = -2.03485e-16
Pressure gradient source: uncorrected Ubar = 1, pressure gradient = 0.00392121
smoothSolver:  Solving for omega, Initial residual = 7.16403e-06, Final residual = 7.16403e-06, No Iterations 0
smoothSolver:  Solving for k, Initial residual = 5.13286e-06, Final residual = 5.13286e-06, No Iterations 0
ExecutionTime = 6.16086 s  ClockTime = 6 s

Time = 2290s

smoothSolver:  Solving for Ux, Initial residual = 9.02399e-06, Final residual = 9.02399e-06, No Iterations 0
smoothSolver:  Solving for Uy, Initial residual = 0.000104493, Final residual = 7.83085e-06, No Iterations 4
Pressure gradient source: uncorrected Ubar = 1, pressure gradient = 0.00392121
GAMG:  Solving for p, Initial residual = 2.87356e-05, Final residual = 2.32902e-06, No Iterations 5
time step continuity errors : sum local = 2.03493e-10, global = -6.01246e-18, cumulative = -2.09497e-16
Pressure gradient source: uncorrected Ubar = 1, pressure gradient = 0.00392121
smoothSolver:  Solving for omega, Initial residual = 7.16403e-06, Final residual = 7.16403e-06, No Iterations 0
smoothSolver:  Solving for k, Initial residual = 5.13158e-06, Final residual = 5.13158e-06, No Iterations 0
ExecutionTime = 6.16329 s  ClockTime = 6 s

Time = 2291s

smoothSolver:  Solving for Ux, Initial residual = 9.01229e-06, Final residual = 9.01229e-06, No Iterations 0
smoothSolver:  Solving for Uy, Initial residual = 0.000102643, Final residual = 7.71854e-06, No Iterations 4
Pressure gradient source: uncorrected Ubar = 1, pressure gradient = 0.00392121
GAMG:  Solving for p, Initial residual = 2.84986e-05, Final residual = 2.30752e-06, No Iterations 5
time step continuity errors : sum local = 2.03209e-10, global = -4.2068e-18, cumulative = -2.13704e-16
Pressure gradient source: uncorrected Ubar = 1, pressure gradient = 0.00392122
smoothSolver:  Solving for omega, Initial residual = 7.16403e-06, Final residual = 7.16403e-06, No Iterations 0
smoothSolver:  Solving for k, Initial residual = 5.13434e-06, Final residual = 5.13434e-06, No Iterations 0
ExecutionTime = 6.16573 s  ClockTime = 6 s

Time = 2292s

smoothSolver:  Solving for Ux, Initial residual = 9.0006e-06, Final residual = 9.0006e-06, No Iterations 0
smoothSolver:  Solving for Uy, Initial residual = 0.000100837, Final residual = 7.60853e-06, No Iterations 4
Pressure gradient source: uncorrected Ubar = 1, pressure gradient = 0.00392122
GAMG:  Solving for p, Initial residual = 2.82639e-05, Final residual = 2.30814e-06, No Iterations 5
time step continuity errors : sum local = 2.06501e-10, global = 5.04745e-18, cumulative = -2.08657e-16
Pressure gradient source: uncorrected Ubar = 1, pressure gradient = 0.00392122
smoothSolver:  Solving for omega, Initial residual = 7.16403e-06, Final residual = 7.16403e-06, No Iterations 0
smoothSolver:  Solving for k, Initial residual = 5.14075e-06, Final residual = 5.14075e-06, No Iterations 0
ExecutionTime = 6.16821 s  ClockTime = 6 s

Time = 2293s

smoothSolver:  Solving for Ux, Initial residual = 8.98891e-06, Final residual = 8.98891e-06, No Iterations 0
smoothSolver:  Solving for Uy, Initial residual = 9.90246e-05, Final residual = 7.50678e-06, No Iterations 4
Pressure gradient source: uncorrected Ubar = 1, pressure gradient = 0.00392122
GAMG:  Solving for p, Initial residual = 2.80245e-05, Final residual = 1.78421e-06, No Iterations 5
time step continuity errors : sum local = 1.64542e-10, global = -2.29944e-18, cumulative = -2.10956e-16
Pressure gradient source: uncorrected Ubar = 1, pressure gradient = 0.00392123
smoothSolver:  Solving for omega, Initial residual = 7.16403e-06, Final residual = 7.16403e-06, No Iterations 0
smoothSolver:  Solving for k, Initial residual = 5.15289e-06, Final residual = 5.15289e-06, No Iterations 0
ExecutionTime = 6.17064 s  ClockTime = 6 s


SIMPLE solution converged in 2293 iterations

End

