/*---------------------------------------------------------------------------*\
  =========                 |
  \\      /  F ield         | OpenFOAM: The Open Source CFD Toolbox
   \\    /   O peration     | Website:  https://openfoam.org
    \\  /    A nd           | Version:  10
     \\/     M anipulation  |
\*---------------------------------------------------------------------------*/
Build  : 10-e450dce21ea5
Exec   : blockMesh
Date   : Feb 20 2023
Time   : 14:16:54
Host   : "w530-R9YK46P"
PID    : 18978
I/O    : uncollated
Case   : /home/jdmezazeron/gitDanielMezaZ/turbulenceVisualized/Data/SimulationFiles/K35_Re5250
nProcs : 1
sigFpe : Enabling floating point exception trapping (FOAM_SIGFPE).
fileModificationChecking : Monitoring run-time modified files using timeStampMaster (fileModificationSkew 10)
allowSystemOperations : Allowing user-supplied system call operations

// * * * * * * * * * * * * * * * * * * * * * * * * * * * * * * * * * * * * * //
Create time

Deleting polyMesh directory
    "/home/jdmezazeron/gitDanielMezaZ/turbulenceVisualized/Data/SimulationFiles/K35_Re5250/constant/polyMesh"
Reading "blockMeshDict"

Creating block mesh from
    "system/blockMeshDict"
Creating block edges
No non-planar block faces defined
Creating topology blocks
Creating topology patches

Creating block mesh topology

Check topology

	Basic statistics
		Number of internal faces : 0
		Number of boundary faces : 6
		Number of defined boundary faces : 6
		Number of undefined boundary faces : 0
	Checking patch -> block consistency

Creating block offsets
Creating merge list .

Creating polyMesh from blockMesh
Creating patches
Creating cells
Creating points with scale 1
    Block 0 cell size :
        i : 0.5
        j : 0.00461374 .. 0.018455
        k : 2

Detected cyclic patches; ordering boundary faces

Writing polyMesh
----------------
Mesh Information
----------------
  boundingBox: (-1 0 -1) (1 1 1)
  nPoints: 1010
  nCells: 400
  nFaces: 1704
  nInternalFaces: 696
----------------
Patches
----------------
  patch 0 (start: 696 size: 100) name: inlet
  patch 1 (start: 796 size: 100) name: outlet
  patch 2 (start: 896 size: 4) name: fixedWalls-bottom
  patch 3 (start: 900 size: 4) name: fixedWalls-top
  patch 4 (start: 904 size: 800) name: frontAndBack

End

/*---------------------------------------------------------------------------*\
  =========                 |
  \\      /  F ield         | OpenFOAM: The Open Source CFD Toolbox
   \\    /   O peration     | Website:  https://openfoam.org
    \\  /    A nd           | Version:  10
     \\/     M anipulation  |
\*---------------------------------------------------------------------------*/
Build  : 10-e450dce21ea5
Exec   : simpleFoam
Date   : Feb 20 2023
Time   : 14:16:54
Host   : "w530-R9YK46P"
PID    : 18979
I/O    : uncollated
Case   : /home/jdmezazeron/gitDanielMezaZ/turbulenceVisualized/Data/SimulationFiles/K35_Re5250
nProcs : 1
sigFpe : Enabling floating point exception trapping (FOAM_SIGFPE).
fileModificationChecking : Monitoring run-time modified files using timeStampMaster (fileModificationSkew 10)
allowSystemOperations : Allowing user-supplied system call operations

// * * * * * * * * * * * * * * * * * * * * * * * * * * * * * * * * * * * * * //
Create time

Create mesh for time = 0


SIMPLE: Convergence criteria found
        U: tolerance 0.0001
        p: tolerance 0.01
        omega: tolerance 0.0001

Reading field p

Reading field U

Reading/calculating face flux field phi

Selecting viscosity model Newtonian
Selecting turbulence model type RAS
Selecting RAS turbulence model kOmegaSST
Selecting patchDistMethod meshWave
RAS
{
    RASModel        kOmegaSST;
    turbulence      on;
    printCoeffs     on;
    alphaK1         0.85;
    alphaK2         1;
    alphaOmega1     0.5;
    alphaOmega2     0.856;
    gamma1          0.555556;
    gamma2          0.44;
    beta1           0.075;
    beta2           0.0828;
    betaStar        0.09;
    a1              0.31;
    b1              1;
    c1              10;
    F3              false;
}

No MRF models present

--> FOAM Warning : Creating fvModels from "system/fvOptions" rather than constant/fvModels
No fvModels present
--> FOAM Warning : Creating fvConstraints from "system/fvOptions"

Selecting finite volume constraint type meanVelocityForce
    Name: momentumSource
    - selecting all cells
    - selected 400 cell(s) with volume 4
    Initial pressure gradient = 0


Starting time loop

turbulenceFields stressComponents: storing fields:
    R

Time = 1s

smoothSolver:  Solving for Ux, Initial residual = 0, Final residual = 0, No Iterations 0
smoothSolver:  Solving for Uy, Initial residual = 0, Final residual = 0, No Iterations 0
Pressure gradient source: uncorrected Ubar = 0, pressure gradient = 1112.92
GAMG:  Solving for p, Initial residual = 0.999996, Final residual = 0.0898984, No Iterations 2
time step continuity errors : sum local = 7.73734e-17, global = 1.56446e-18, cumulative = 1.56446e-18
Pressure gradient source: uncorrected Ubar = 0.884653, pressure gradient = 128.371
smoothSolver:  Solving for omega, Initial residual = 0.250819, Final residual = 0.0151546, No Iterations 3
smoothSolver:  Solving for k, Initial residual = 1, Final residual = 0.0785373, No Iterations 4
ExecutionTime = 0.015609 s  ClockTime = 0 s

Time = 2s

smoothSolver:  Solving for Ux, Initial residual = 0.993214, Final residual = 0.0960068, No Iterations 6
smoothSolver:  Solving for Uy, Initial residual = 1, Final residual = 0.0849714, No Iterations 5
Pressure gradient source: uncorrected Ubar = 63.3621, pressure gradient = -952.411
GAMG:  Solving for p, Initial residual = 1, Final residual = 0.0871907, No Iterations 16
time step continuity errors : sum local = 0.0500669, global = 4.86265e-17, cumulative = 5.01909e-17
Pressure gradient source: uncorrected Ubar = 9.13519, pressure gradient = -12.6176
smoothSolver:  Solving for omega, Initial residual = 0.148025, Final residual = 0.00312997, No Iterations 1
smoothSolver:  Solving for k, Initial residual = 0.659539, Final residual = 0.0443715, No Iterations 2
ExecutionTime = 0.018944 s  ClockTime = 0 s

Time = 3s

smoothSolver:  Solving for Ux, Initial residual = 0.363379, Final residual = 0.0289902, No Iterations 6
smoothSolver:  Solving for Uy, Initial residual = 0.647697, Final residual = 0.0246844, No Iterations 2
Pressure gradient source: uncorrected Ubar = -1.70242, pressure gradient = 98.0202
GAMG:  Solving for p, Initial residual = 0.198563, Final residual = 0.0164517, No Iterations 9
time step continuity errors : sum local = 0.0213945, global = 6.15861e-17, cumulative = 1.11777e-16
Pressure gradient source: uncorrected Ubar = 0.666728, pressure gradient = 1.02664
smoothSolver:  Solving for omega, Initial residual = 0.0354005, Final residual = 0.0026217, No Iterations 1
smoothSolver:  Solving for k, Initial residual = 0.558499, Final residual = 0.0314309, No Iterations 2
ExecutionTime = 0.021774 s  ClockTime = 0 s

Time = 4s

smoothSolver:  Solving for Ux, Initial residual = 0.0937726, Final residual = 0.00828021, No Iterations 4
smoothSolver:  Solving for Uy, Initial residual = 0.371887, Final residual = 0.0331913, No Iterations 2
Pressure gradient source: uncorrected Ubar = 1.01369, pressure gradient = 0.677298
GAMG:  Solving for p, Initial residual = 0.117819, Final residual = 0.01039, No Iterations 11
time step continuity errors : sum local = 0.03352, global = -5.43727e-17, cumulative = 5.74043e-17
Pressure gradient source: uncorrected Ubar = 1.00313, pressure gradient = 0.946881
smoothSolver:  Solving for omega, Initial residual = 0.0213404, Final residual = 0.000879656, No Iterations 2
smoothSolver:  Solving for k, Initial residual = 0.706727, Final residual = 0.0240564, No Iterations 2
ExecutionTime = 0.024744 s  ClockTime = 0 s

Time = 5s

smoothSolver:  Solving for Ux, Initial residual = 0.107203, Final residual = 0.00821915, No Iterations 4
smoothSolver:  Solving for Uy, Initial residual = 0.428409, Final residual = 0.0344287, No Iterations 2
Pressure gradient source: uncorrected Ubar = 0.956741, pressure gradient = 2.12203
GAMG:  Solving for p, Initial residual = 0.19519, Final residual = 0.0189039, No Iterations 10
time step continuity errors : sum local = 0.0539936, global = -9.41087e-17, cumulative = -3.67045e-17
Pressure gradient source: uncorrected Ubar = 0.995172, pressure gradient = 1.07803
smoothSolver:  Solving for omega, Initial residual = 0.0623697, Final residual = 0.00201559, No Iterations 2
smoothSolver:  Solving for k, Initial residual = 0.653056, Final residual = 0.0112894, No Iterations 2
ExecutionTime = 0.027995 s  ClockTime = 0 s

Time = 6s

smoothSolver:  Solving for Ux, Initial residual = 0.122277, Final residual = 0.00854544, No Iterations 3
smoothSolver:  Solving for Uy, Initial residual = 0.499346, Final residual = 0.0366089, No Iterations 2
Pressure gradient source: uncorrected Ubar = 0.961901, pressure gradient = 2.26781
GAMG:  Solving for p, Initial residual = 0.419855, Final residual = 0.0388941, No Iterations 13
time step continuity errors : sum local = 0.0774474, global = -6.7085e-18, cumulative = -4.3413e-17
Pressure gradient source: uncorrected Ubar = 0.998679, pressure gradient = 1.11928
smoothSolver:  Solving for omega, Initial residual = 0.136392, Final residual = 0.00274212, No Iterations 2
smoothSolver:  Solving for k, Initial residual = 0.438611, Final residual = 0.0112925, No Iterations 2
ExecutionTime = 0.031141 s  ClockTime = 0 s

Time = 7s

smoothSolver:  Solving for Ux, Initial residual = 0.0974158, Final residual = 0.00597552, No Iterations 3
smoothSolver:  Solving for Uy, Initial residual = 0.456888, Final residual = 0.0199327, No Iterations 3
Pressure gradient source: uncorrected Ubar = 0.903433, pressure gradient = 5.00308
GAMG:  Solving for p, Initial residual = 0.596074, Final residual = 0.0565132, No Iterations 8
time step continuity errors : sum local = 0.120843, global = -2.88533e-17, cumulative = -7.22663e-17
Pressure gradient source: uncorrected Ubar = 0.987031, pressure gradient = 1.64089
smoothSolver:  Solving for omega, Initial residual = 0.143965, Final residual = 0.0142499, No Iterations 1
smoothSolver:  Solving for k, Initial residual = 0.268351, Final residual = 0.00547107, No Iterations 2
ExecutionTime = 0.033954 s  ClockTime = 0 s

Time = 8s

smoothSolver:  Solving for Ux, Initial residual = 0.101856, Final residual = 0.00695347, No Iterations 3
smoothSolver:  Solving for Uy, Initial residual = 0.450127, Final residual = 0.04447, No Iterations 2
Pressure gradient source: uncorrected Ubar = 0.932614, pressure gradient = 4.92289
GAMG:  Solving for p, Initial residual = 0.343033, Final residual = 0.0281101, No Iterations 12
time step continuity errors : sum local = 0.124416, global = -5.29091e-17, cumulative = -1.25175e-16
Pressure gradient source: uncorrected Ubar = 0.989811, pressure gradient = 2.13714
smoothSolver:  Solving for omega, Initial residual = 0.121792, Final residual = 0.00206452, No Iterations 2
smoothSolver:  Solving for k, Initial residual = 0.24254, Final residual = 0.00595941, No Iterations 2
ExecutionTime = 0.037162 s  ClockTime = 0 s

Time = 9s

smoothSolver:  Solving for Ux, Initial residual = 0.073551, Final residual = 0.00595157, No Iterations 3
smoothSolver:  Solving for Uy, Initial residual = 0.44456, Final residual = 0.0189234, No Iterations 3
Pressure gradient source: uncorrected Ubar = 0.861364, pressure gradient = 9.50923
GAMG:  Solving for p, Initial residual = 0.256434, Final residual = 0.0224126, No Iterations 7
time step continuity errors : sum local = 0.146031, global = -1.37152e-16, cumulative = -2.62327e-16
Pressure gradient source: uncorrected Ubar = 0.981425, pressure gradient = 3.12491
smoothSolver:  Solving for omega, Initial residual = 0.0723015, Final residual = 0.0064418, No Iterations 1
smoothSolver:  Solving for k, Initial residual = 0.214231, Final residual = 0.0121314, No Iterations 2
ExecutionTime = 0.040031 s  ClockTime = 0 s

Time = 10s

smoothSolver:  Solving for Ux, Initial residual = 0.0556842, Final residual = 0.00528846, No Iterations 3
smoothSolver:  Solving for Uy, Initial residual = 0.405339, Final residual = 0.0196245, No Iterations 3
Pressure gradient source: uncorrected Ubar = 0.884685, pressure gradient = 9.84242
GAMG:  Solving for p, Initial residual = 0.326186, Final residual = 0.0270226, No Iterations 10
time step continuity errors : sum local = 0.116234, global = -6.50521e-19, cumulative = -2.62977e-16
Pressure gradient source: uncorrected Ubar = 0.990193, pressure gradient = 3.69619
smoothSolver:  Solving for omega, Initial residual = 0.0716536, Final residual = 0.00262873, No Iterations 2
smoothSolver:  Solving for k, Initial residual = 0.155965, Final residual = 0.0114454, No Iterations 2
ExecutionTime = 0.042909 s  ClockTime = 0 s

Time = 11s

smoothSolver:  Solving for Ux, Initial residual = 0.0417004, Final residual = 0.00297427, No Iterations 4
smoothSolver:  Solving for Uy, Initial residual = 0.482056, Final residual = 0.0250164, No Iterations 3
Pressure gradient source: uncorrected Ubar = 0.930068, pressure gradient = 8.11632
GAMG:  Solving for p, Initial residual = 0.331387, Final residual = 0.0305489, No Iterations 8
time step continuity errors : sum local = 0.117575, global = 2.27615e-17, cumulative = -2.40216e-16
Pressure gradient source: uncorrected Ubar = 0.996367, pressure gradient = 3.9258
smoothSolver:  Solving for omega, Initial residual = 0.0732865, Final residual = 0.00382508, No Iterations 2
smoothSolver:  Solving for k, Initial residual = 0.125867, Final residual = 0.0110634, No Iterations 2
ExecutionTime = 0.045932 s  ClockTime = 0 s

Time = 12s

smoothSolver:  Solving for Ux, Initial residual = 0.0312081, Final residual = 0.00236208, No Iterations 4
smoothSolver:  Solving for Uy, Initial residual = 0.467115, Final residual = 0.0222589, No Iterations 3
Pressure gradient source: uncorrected Ubar = 0.956641, pressure gradient = 7.07819
GAMG:  Solving for p, Initial residual = 0.276221, Final residual = 0.0243643, No Iterations 10
time step continuity errors : sum local = 0.093122, global = -3.39592e-17, cumulative = -2.74175e-16
Pressure gradient source: uncorrected Ubar = 0.996426, pressure gradient = 4.18562
smoothSolver:  Solving for omega, Initial residual = 0.0654546, Final residual = 0.00360927, No Iterations 2
smoothSolver:  Solving for k, Initial residual = 0.103279, Final residual = 0.00505712, No Iterations 3
ExecutionTime = 0.048935 s  ClockTime = 0 s

Time = 13s

smoothSolver:  Solving for Ux, Initial residual = 0.0257463, Final residual = 0.0019175, No Iterations 4
smoothSolver:  Solving for Uy, Initial residual = 0.392488, Final residual = 0.0222186, No Iterations 3
Pressure gradient source: uncorrected Ubar = 0.944767, pressure gradient = 8.85523
GAMG:  Solving for p, Initial residual = 0.266617, Final residual = 0.0253245, No Iterations 8
time step continuity errors : sum local = 0.124851, global = -5.09439e-17, cumulative = -3.25119e-16
Pressure gradient source: uncorrected Ubar = 0.993742, pressure gradient = 4.71465
smoothSolver:  Solving for omega, Initial residual = 0.0659535, Final residual = 0.00352386, No Iterations 2
smoothSolver:  Solving for k, Initial residual = 0.0920382, Final residual = 0.00511787, No Iterations 3
ExecutionTime = 0.05175 s  ClockTime = 0 s

Time = 14s

smoothSolver:  Solving for Ux, Initial residual = 0.0218935, Final residual = 0.00163228, No Iterations 4
smoothSolver:  Solving for Uy, Initial residual = 0.350824, Final residual = 0.0191499, No Iterations 3
Pressure gradient source: uncorrected Ubar = 0.941708, pressure gradient = 10.3885
GAMG:  Solving for p, Initial residual = 0.367163, Final residual = 0.0343377, No Iterations 9
time step continuity errors : sum local = 0.122897, global = -1.21214e-16, cumulative = -4.46333e-16
Pressure gradient source: uncorrected Ubar = 0.996194, pressure gradient = 5.08512
smoothSolver:  Solving for omega, Initial residual = 0.0597103, Final residual = 0.00463974, No Iterations 2
smoothSolver:  Solving for k, Initial residual = 0.0824, Final residual = 0.00564363, No Iterations 3
ExecutionTime = 0.054887 s  ClockTime = 0 s

Time = 15s

smoothSolver:  Solving for Ux, Initial residual = 0.0198535, Final residual = 0.00152964, No Iterations 4
smoothSolver:  Solving for Uy, Initial residual = 0.38976, Final residual = 0.0214985, No Iterations 3
Pressure gradient source: uncorrected Ubar = 0.950106, pressure gradient = 10.6738
GAMG:  Solving for p, Initial residual = 0.179158, Final residual = 0.0127492, No Iterations 4
time step continuity errors : sum local = 0.100357, global = 7.22146e-17, cumulative = -3.74118e-16
Pressure gradient source: uncorrected Ubar = 0.998842, pressure gradient = 5.21479
smoothSolver:  Solving for omega, Initial residual = 0.0519266, Final residual = 0.00405214, No Iterations 2
smoothSolver:  Solving for k, Initial residual = 0.0770326, Final residual = 0.00651478, No Iterations 3
ExecutionTime = 0.057624 s  ClockTime = 0 s

Time = 16s

smoothSolver:  Solving for Ux, Initial residual = 0.0178628, Final residual = 0.00150403, No Iterations 4
smoothSolver:  Solving for Uy, Initial residual = 0.403549, Final residual = 0.0242569, No Iterations 3
Pressure gradient source: uncorrected Ubar = 0.955252, pressure gradient = 10.9324
GAMG:  Solving for p, Initial residual = 0.166118, Final residual = 0.0126578, No Iterations 8
time step continuity errors : sum local = 0.116311, global = 3.25303e-18, cumulative = -3.70865e-16
Pressure gradient source: uncorrected Ubar = 0.998636, pressure gradient = 5.38909
smoothSolver:  Solving for omega, Initial residual = 0.0383619, Final residual = 0.00182251, No Iterations 3
smoothSolver:  Solving for k, Initial residual = 0.0733268, Final residual = 0.00404376, No Iterations 4
ExecutionTime = 0.060474 s  ClockTime = 0 s

Time = 17s

smoothSolver:  Solving for Ux, Initial residual = 0.0158324, Final residual = 0.001535, No Iterations 4
smoothSolver:  Solving for Uy, Initial residual = 0.261, Final residual = 0.0188393, No Iterations 3
Pressure gradient source: uncorrected Ubar = 0.955028, pressure gradient = 11.6709
GAMG:  Solving for p, Initial residual = 0.206135, Final residual = 0.0151596, No Iterations 9
time step continuity errors : sum local = 0.081825, global = -5.94143e-17, cumulative = -4.3028e-16
Pressure gradient source: uncorrected Ubar = 0.995548, pressure gradient = 6.01094
smoothSolver:  Solving for omega, Initial residual = 0.0335489, Final residual = 0.00206227, No Iterations 3
smoothSolver:  Solving for k, Initial residual = 0.0721002, Final residual = 0.00517935, No Iterations 4
ExecutionTime = 0.063714 s  ClockTime = 0 s

Time = 18s

smoothSolver:  Solving for Ux, Initial residual = 0.0148303, Final residual = 0.00103494, No Iterations 5
smoothSolver:  Solving for Uy, Initial residual = 0.335986, Final residual = 0.0204055, No Iterations 3
Pressure gradient source: uncorrected Ubar = 1.00718, pressure gradient = 4.93332
GAMG:  Solving for p, Initial residual = 0.190848, Final residual = 0.0178343, No Iterations 11
time step continuity errors : sum local = 0.0722795, global = 9.26247e-17, cumulative = -3.37655e-16
Pressure gradient source: uncorrected Ubar = 1.0023, pressure gradient = 5.66568
smoothSolver:  Solving for omega, Initial residual = 0.0269178, Final residual = 0.00221257, No Iterations 3
smoothSolver:  Solving for k, Initial residual = 0.0670024, Final residual = 0.00546917, No Iterations 4
ExecutionTime = 0.066787 s  ClockTime = 0 s

Time = 19s

smoothSolver:  Solving for Ux, Initial residual = 0.013712, Final residual = 0.00102751, No Iterations 5
smoothSolver:  Solving for Uy, Initial residual = 0.301436, Final residual = 0.0254087, No Iterations 3
Pressure gradient source: uncorrected Ubar = 1.00689, pressure gradient = 4.54079
GAMG:  Solving for p, Initial residual = 0.14759, Final residual = 0.0130073, No Iterations 8
time step continuity errors : sum local = 0.0711415, global = 2.35069e-17, cumulative = -3.14148e-16
Pressure gradient source: uncorrected Ubar = 1.00011, pressure gradient = 5.64725
smoothSolver:  Solving for omega, Initial residual = 0.0229772, Final residual = 0.00130133, No Iterations 4
smoothSolver:  Solving for k, Initial residual = 0.0620913, Final residual = 0.00600601, No Iterations 4
ExecutionTime = 0.069627 s  ClockTime = 0 s

Time = 20s

smoothSolver:  Solving for Ux, Initial residual = 0.0128434, Final residual = 0.00101792, No Iterations 5
smoothSolver:  Solving for Uy, Initial residual = 0.347496, Final residual = 0.0278406, No Iterations 3
Pressure gradient source: uncorrected Ubar = 1.01019, pressure gradient = 3.84483
GAMG:  Solving for p, Initial residual = 0.0765639, Final residual = 0.00672592, No Iterations 9
time step continuity errors : sum local = 0.0681033, global = -8.04376e-17, cumulative = -3.94586e-16
Pressure gradient source: uncorrected Ubar = 1.00106, pressure gradient = 5.45926
smoothSolver:  Solving for omega, Initial residual = 0.0199607, Final residual = 0.00145836, No Iterations 4
smoothSolver:  Solving for k, Initial residual = 0.0566558, Final residual = 0.00372628, No Iterations 5
ExecutionTime = 0.072811 s  ClockTime = 0 s

Time = 21s

smoothSolver:  Solving for Ux, Initial residual = 0.0120484, Final residual = 0.000986314, No Iterations 5
smoothSolver:  Solving for Uy, Initial residual = 0.292874, Final residual = 0.0245673, No Iterations 3
Pressure gradient source: uncorrected Ubar = 1.00563, pressure gradient = 4.36115
GAMG:  Solving for p, Initial residual = 0.0608713, Final residual = 0.00463658, No Iterations 9
time step continuity errors : sum local = 0.0536538, global = 1.20238e-16, cumulative = -2.74348e-16
Pressure gradient source: uncorrected Ubar = 1.00024, pressure gradient = 5.41192
smoothSolver:  Solving for omega, Initial residual = 0.0190409, Final residual = 0.00163504, No Iterations 4
smoothSolver:  Solving for k, Initial residual = 0.0516794, Final residual = 0.00395184, No Iterations 5
ExecutionTime = 0.075847 s  ClockTime = 0 s

Time = 22s

smoothSolver:  Solving for Ux, Initial residual = 0.0114928, Final residual = 0.000954446, No Iterations 5
smoothSolver:  Solving for Uy, Initial residual = 0.20862, Final residual = 0.0199006, No Iterations 3
Pressure gradient source: uncorrected Ubar = 1.00527, pressure gradient = 4.29488
GAMG:  Solving for p, Initial residual = 0.0476376, Final residual = 0.00416812, No Iterations 8
time step continuity errors : sum local = 0.0518072, global = 1.23707e-16, cumulative = -1.5064e-16
Pressure gradient source: uncorrected Ubar = 0.999972, pressure gradient = 5.41791
smoothSolver:  Solving for omega, Initial residual = 0.0182751, Final residual = 0.00167663, No Iterations 4
smoothSolver:  Solving for k, Initial residual = 0.046919, Final residual = 0.00401604, No Iterations 5
ExecutionTime = 0.078745 s  ClockTime = 0 s

Time = 23s

smoothSolver:  Solving for Ux, Initial residual = 0.0110053, Final residual = 0.00092057, No Iterations 5
smoothSolver:  Solving for Uy, Initial residual = 0.199823, Final residual = 0.0194629, No Iterations 3
Pressure gradient source: uncorrected Ubar = 1.00831, pressure gradient = 3.51835
GAMG:  Solving for p, Initial residual = 0.0375475, Final residual = 0.00322552, No Iterations 9
time step continuity errors : sum local = 0.0350306, global = -3.50197e-17, cumulative = -1.8566e-16
Pressure gradient source: uncorrected Ubar = 1.00081, pressure gradient = 5.23323
smoothSolver:  Solving for omega, Initial residual = 0.0187411, Final residual = 0.00171191, No Iterations 4
smoothSolver:  Solving for k, Initial residual = 0.0415759, Final residual = 0.00359361, No Iterations 5
ExecutionTime = 0.082101 s  ClockTime = 0 s

Time = 24s

smoothSolver:  Solving for Ux, Initial residual = 0.0105684, Final residual = 0.000886292, No Iterations 5
smoothSolver:  Solving for Uy, Initial residual = 0.211168, Final residual = 0.0112383, No Iterations 4
Pressure gradient source: uncorrected Ubar = 1.00451, pressure gradient = 4.13744
GAMG:  Solving for p, Initial residual = 0.0318519, Final residual = 0.00314103, No Iterations 9
time step continuity errors : sum local = 0.0270526, global = -4.16063e-18, cumulative = -1.89821e-16
Pressure gradient source: uncorrected Ubar = 1.00036, pressure gradient = 5.1467
smoothSolver:  Solving for omega, Initial residual = 0.0184896, Final residual = 0.0018154, No Iterations 4
smoothSolver:  Solving for k, Initial residual = 0.0378759, Final residual = 0.0035234, No Iterations 5
ExecutionTime = 0.085091 s  ClockTime = 0 s

Time = 25s

smoothSolver:  Solving for Ux, Initial residual = 0.0101486, Final residual = 0.000851794, No Iterations 5
smoothSolver:  Solving for Uy, Initial residual = 0.197618, Final residual = 0.0134076, No Iterations 4
Pressure gradient source: uncorrected Ubar = 1.00474, pressure gradient = 3.93119
GAMG:  Solving for p, Initial residual = 0.0343416, Final residual = 0.00342591, No Iterations 9
time step continuity errors : sum local = 0.0204967, global = 7.0568e-17, cumulative = -1.19252e-16
Pressure gradient source: uncorrected Ubar = 1.00055, pressure gradient = 5.00655
smoothSolver:  Solving for omega, Initial residual = 0.0182156, Final residual = 0.00112072, No Iterations 5
smoothSolver:  Solving for k, Initial residual = 0.0344508, Final residual = 0.00330458, No Iterations 5
ExecutionTime = 0.088069 s  ClockTime = 0 s

Time = 26s

smoothSolver:  Solving for Ux, Initial residual = 0.00976888, Final residual = 0.00082112, No Iterations 5
smoothSolver:  Solving for Uy, Initial residual = 0.18793, Final residual = 0.0127967, No Iterations 4
Pressure gradient source: uncorrected Ubar = 1.0033, pressure gradient = 4.12006
GAMG:  Solving for p, Initial residual = 0.0459737, Final residual = 0.00404647, No Iterations 10
time step continuity errors : sum local = 0.0182699, global = -1.87093e-17, cumulative = -1.37962e-16
Pressure gradient source: uncorrected Ubar = 1.00042, pressure gradient = 4.89388
smoothSolver:  Solving for omega, Initial residual = 0.0176767, Final residual = 0.00122048, No Iterations 5
smoothSolver:  Solving for k, Initial residual = 0.0317459, Final residual = 0.00201935, No Iterations 6
ExecutionTime = 0.091248 s  ClockTime = 0 s

Time = 27s

smoothSolver:  Solving for Ux, Initial residual = 0.0094153, Final residual = 0.000792557, No Iterations 5
smoothSolver:  Solving for Uy, Initial residual = 0.181018, Final residual = 0.0121211, No Iterations 4
Pressure gradient source: uncorrected Ubar = 1.00248, pressure gradient = 4.19807
GAMG:  Solving for p, Initial residual = 0.108252, Final residual = 0.00864047, No Iterations 10
time step continuity errors : sum local = 0.016037, global = 5.25287e-17, cumulative = -8.5433e-17
Pressure gradient source: uncorrected Ubar = 1.00029, pressure gradient = 4.81376
smoothSolver:  Solving for omega, Initial residual = 0.016004, Final residual = 0.00116689, No Iterations 5
smoothSolver:  Solving for k, Initial residual = 0.0294668, Final residual = 0.00195977, No Iterations 6
ExecutionTime = 0.094266 s  ClockTime = 0 s

Time = 28s

smoothSolver:  Solving for Ux, Initial residual = 0.00908045, Final residual = 0.000765458, No Iterations 5
smoothSolver:  Solving for Uy, Initial residual = 0.15743, Final residual = 0.0116345, No Iterations 4
Pressure gradient source: uncorrected Ubar = 1.00313, pressure gradient = 3.88505
GAMG:  Solving for p, Initial residual = 0.0457741, Final residual = 0.00440604, No Iterations 7
time step continuity errors : sum local = 0.0183094, global = -1.62522e-16, cumulative = -2.47955e-16
Pressure gradient source: uncorrected Ubar = 1.00033, pressure gradient = 4.71609
smoothSolver:  Solving for omega, Initial residual = 0.014885, Final residual = 0.00116173, No Iterations 5
smoothSolver:  Solving for k, Initial residual = 0.0273159, Final residual = 0.00186883, No Iterations 6
ExecutionTime = 0.097157 s  ClockTime = 0 s

Time = 29s

smoothSolver:  Solving for Ux, Initial residual = 0.00876984, Final residual = 0.000739815, No Iterations 5
smoothSolver:  Solving for Uy, Initial residual = 0.127571, Final residual = 0.0109999, No Iterations 4
Pressure gradient source: uncorrected Ubar = 1.0026, pressure gradient = 3.89363
GAMG:  Solving for p, Initial residual = 0.0268923, Final residual = 0.00256762, No Iterations 7
time step continuity errors : sum local = 0.0157198, global = -8.45678e-18, cumulative = -2.56412e-16
Pressure gradient source: uncorrected Ubar = 1.00023, pressure gradient = 4.64196
smoothSolver:  Solving for omega, Initial residual = 0.0141421, Final residual = 0.00113649, No Iterations 5
smoothSolver:  Solving for k, Initial residual = 0.0253935, Final residual = 0.00179047, No Iterations 6
ExecutionTime = 0.100254 s  ClockTime = 0 s

Time = 30s

smoothSolver:  Solving for Ux, Initial residual = 0.00848225, Final residual = 0.000716872, No Iterations 5
smoothSolver:  Solving for Uy, Initial residual = 0.110515, Final residual = 0.0103405, No Iterations 4
Pressure gradient source: uncorrected Ubar = 1.00305, pressure gradient = 3.6224
GAMG:  Solving for p, Initial residual = 0.0166804, Final residual = 0.00143373, No Iterations 11
time step continuity errors : sum local = 0.011823, global = -3.26345e-17, cumulative = -2.89046e-16
Pressure gradient source: uncorrected Ubar = 1.0003, pressure gradient = 4.54021
smoothSolver:  Solving for omega, Initial residual = 0.0133275, Final residual = 0.00119235, No Iterations 5
smoothSolver:  Solving for k, Initial residual = 0.0233799, Final residual = 0.00168153, No Iterations 6
ExecutionTime = 0.103323 s  ClockTime = 0 s

Time = 31s

smoothSolver:  Solving for Ux, Initial residual = 0.00823106, Final residual = 0.000696817, No Iterations 5
smoothSolver:  Solving for Uy, Initial residual = 0.108344, Final residual = 0.00964424, No Iterations 4
Pressure gradient source: uncorrected Ubar = 1.00319, pressure gradient = 3.42518
GAMG:  Solving for p, Initial residual = 0.0103102, Final residual = 0.00101242, No Iterations 11
time step continuity errors : sum local = 0.0101871, global = 1.30104e-18, cumulative = -2.87745e-16
Pressure gradient source: uncorrected Ubar = 1.00033, pressure gradient = 4.42403
smoothSolver:  Solving for omega, Initial residual = 0.0124075, Final residual = 0.00109051, No Iterations 5
smoothSolver:  Solving for k, Initial residual = 0.0217313, Final residual = 0.00158016, No Iterations 6
ExecutionTime = 0.106957 s  ClockTime = 0 s

Time = 32s

smoothSolver:  Solving for Ux, Initial residual = 0.00798888, Final residual = 0.000677364, No Iterations 5
smoothSolver:  Solving for Uy, Initial residual = 0.0962617, Final residual = 0.00899163, No Iterations 4
Pressure gradient source: uncorrected Ubar = 1.00192, pressure gradient = 3.71539
GAMG:  Solving for p, Initial residual = 0.00710051, Final residual = 0.000572115, No Iterations 13
time step continuity errors : sum local = 0.00650329, global = 3.03848e-17, cumulative = -2.5736e-16
Pressure gradient source: uncorrected Ubar = 1.00013, pressure gradient = 4.37471
smoothSolver:  Solving for omega, Initial residual = 0.0116366, Final residual = 0.00105398, No Iterations 5
smoothSolver:  Solving for k, Initial residual = 0.020294, Final residual = 0.00150311, No Iterations 6
ExecutionTime = 0.110247 s  ClockTime = 0 s

Time = 33s

smoothSolver:  Solving for Ux, Initial residual = 0.00776899, Final residual = 0.0006581, No Iterations 5
smoothSolver:  Solving for Uy, Initial residual = 0.0831618, Final residual = 0.00496346, No Iterations 5
Pressure gradient source: uncorrected Ubar = 1.00209, pressure gradient = 3.55415
GAMG:  Solving for p, Initial residual = 0.00532929, Final residual = 0.000453613, No Iterations 11
time step continuity errors : sum local = 0.00548127, global = -1.79164e-17, cumulative = -2.75277e-16
Pressure gradient source: uncorrected Ubar = 1.00015, pressure gradient = 4.31643
smoothSolver:  Solving for omega, Initial residual = 0.0111041, Final residual = 0.00100657, No Iterations 5
smoothSolver:  Solving for k, Initial residual = 0.0188309, Final residual = 0.00140041, No Iterations 6
ExecutionTime = 0.113351 s  ClockTime = 0 s

Time = 34s

smoothSolver:  Solving for Ux, Initial residual = 0.00753447, Final residual = 0.000632434, No Iterations 5
smoothSolver:  Solving for Uy, Initial residual = 0.0684084, Final residual = 0.00449142, No Iterations 5
Pressure gradient source: uncorrected Ubar = 1.00078, pressure gradient = 3.99472
GAMG:  Solving for p, Initial residual = 0.00436353, Final residual = 0.000373036, No Iterations 9
time step continuity errors : sum local = 0.00444118, global = 2.42997e-17, cumulative = -2.50977e-16
Pressure gradient source: uncorrected Ubar = 0.999968, pressure gradient = 4.32956
smoothSolver:  Solving for omega, Initial residual = 0.0101524, Final residual = 0.000993275, No Iterations 5
smoothSolver:  Solving for k, Initial residual = 0.0171295, Final residual = 0.00128992, No Iterations 6
ExecutionTime = 0.116651 s  ClockTime = 0 s

Time = 35s

smoothSolver:  Solving for Ux, Initial residual = 0.00723999, Final residual = 0.000605671, No Iterations 5
smoothSolver:  Solving for Uy, Initial residual = 0.0581449, Final residual = 0.0040401, No Iterations 5
Pressure gradient source: uncorrected Ubar = 1.0007, pressure gradient = 4.02961
GAMG:  Solving for p, Initial residual = 0.00372188, Final residual = 0.000330353, No Iterations 6
time step continuity errors : sum local = 0.00393031, global = -4.5279e-17, cumulative = -2.96256e-16
Pressure gradient source: uncorrected Ubar = 0.999957, pressure gradient = 4.34811
smoothSolver:  Solving for omega, Initial residual = 0.00942628, Final residual = 0.000914235, No Iterations 5
smoothSolver:  Solving for k, Initial residual = 0.0154402, Final residual = 0.00115631, No Iterations 6
ExecutionTime = 0.119553 s  ClockTime = 0 s

Time = 36s

smoothSolver:  Solving for Ux, Initial residual = 0.00695876, Final residual = 0.000580527, No Iterations 5
smoothSolver:  Solving for Uy, Initial residual = 0.0503981, Final residual = 0.00368883, No Iterations 5
Pressure gradient source: uncorrected Ubar = 1.00022, pressure gradient = 4.24998
GAMG:  Solving for p, Initial residual = 0.00322309, Final residual = 0.000257941, No Iterations 6
time step continuity errors : sum local = 0.00275417, global = 1.15466e-17, cumulative = -2.84709e-16
Pressure gradient source: uncorrected Ubar = 0.999881, pressure gradient = 4.40218
smoothSolver:  Solving for omega, Initial residual = 0.00872302, Final residual = 0.000567778, No Iterations 6
smoothSolver:  Solving for k, Initial residual = 0.0140864, Final residual = 0.00107347, No Iterations 6
ExecutionTime = 0.122455 s  ClockTime = 0 s

Time = 37s

smoothSolver:  Solving for Ux, Initial residual = 0.00669822, Final residual = 0.00055732, No Iterations 5
smoothSolver:  Solving for Uy, Initial residual = 0.0449583, Final residual = 0.00341582, No Iterations 5
Pressure gradient source: uncorrected Ubar = 1.00022, pressure gradient = 4.29529
GAMG:  Solving for p, Initial residual = 0.00278605, Final residual = 0.000209715, No Iterations 6
time step continuity errors : sum local = 0.00193183, global = 6.75457e-17, cumulative = -2.17164e-16
Pressure gradient source: uncorrected Ubar = 0.999893, pressure gradient = 4.45325
smoothSolver:  Solving for omega, Initial residual = 0.00831196, Final residual = 0.000550873, No Iterations 6
smoothSolver:  Solving for k, Initial residual = 0.0127413, Final residual = 0.000968819, No Iterations 6
ExecutionTime = 0.12548 s  ClockTime = 0 s

Time = 38s

smoothSolver:  Solving for Ux, Initial residual = 0.00646756, Final residual = 0.000536964, No Iterations 5
smoothSolver:  Solving for Uy, Initial residual = 0.0402108, Final residual = 0.0032354, No Iterations 5
Pressure gradient source: uncorrected Ubar = 1.00008, pressure gradient = 4.41309
GAMG:  Solving for p, Initial residual = 0.0024325, Final residual = 0.000208342, No Iterations 4
time step continuity errors : sum local = 0.00152889, global = 3.62666e-17, cumulative = -1.80897e-16
Pressure gradient source: uncorrected Ubar = 0.999877, pressure gradient = 4.51494
smoothSolver:  Solving for omega, Initial residual = 0.00763689, Final residual = 0.00051881, No Iterations 6
smoothSolver:  Solving for k, Initial residual = 0.0115549, Final residual = 0.000881734, No Iterations 6
ExecutionTime = 0.128238 s  ClockTime = 0 s

Time = 39s

smoothSolver:  Solving for Ux, Initial residual = 0.00625381, Final residual = 0.000518398, No Iterations 5
smoothSolver:  Solving for Uy, Initial residual = 0.0355105, Final residual = 0.00306401, No Iterations 5
Pressure gradient source: uncorrected Ubar = 1.00003, pressure gradient = 4.49817
GAMG:  Solving for p, Initial residual = 0.00210873, Final residual = 0.000118273, No Iterations 4
time step continuity errors : sum local = 0.00073712, global = 6.348e-17, cumulative = -1.17417e-16
Pressure gradient source: uncorrected Ubar = 0.999877, pressure gradient = 4.57949
smoothSolver:  Solving for omega, Initial residual = 0.0071478, Final residual = 0.000487823, No Iterations 6
smoothSolver:  Solving for k, Initial residual = 0.0105226, Final residual = 0.000806048, No Iterations 6
ExecutionTime = 0.131004 s  ClockTime = 0 s

Time = 40s

smoothSolver:  Solving for Ux, Initial residual = 0.00606318, Final residual = 0.000502449, No Iterations 5
smoothSolver:  Solving for Uy, Initial residual = 0.0319348, Final residual = 0.00288404, No Iterations 5
Pressure gradient source: uncorrected Ubar = 1.00001, pressure gradient = 4.57536
GAMG:  Solving for p, Initial residual = 0.00188792, Final residual = 3.45301e-05, No Iterations 5
time step continuity errors : sum local = 0.000182588, global = -5.38849e-17, cumulative = -1.71302e-16
Pressure gradient source: uncorrected Ubar = 0.999875, pressure gradient = 4.64843
smoothSolver:  Solving for omega, Initial residual = 0.00670224, Final residual = 0.000467755, No Iterations 6
smoothSolver:  Solving for k, Initial residual = 0.00965692, Final residual = 0.000745605, No Iterations 6
ExecutionTime = 0.134006 s  ClockTime = 0 s

Time = 41s

smoothSolver:  Solving for Ux, Initial residual = 0.00588986, Final residual = 0.000488056, No Iterations 5
smoothSolver:  Solving for Uy, Initial residual = 0.0281716, Final residual = 0.00260798, No Iterations 5
Pressure gradient source: uncorrected Ubar = 1.00007, pressure gradient = 4.61062
GAMG:  Solving for p, Initial residual = 0.00164653, Final residual = 0.000151918, No Iterations 4
time step continuity errors : sum local = 0.000783837, global = -1.80246e-17, cumulative = -1.89327e-16
Pressure gradient source: uncorrected Ubar = 0.999888, pressure gradient = 4.71386
smoothSolver:  Solving for omega, Initial residual = 0.00639906, Final residual = 0.000449488, No Iterations 6
smoothSolver:  Solving for k, Initial residual = 0.00889918, Final residual = 0.000684094, No Iterations 6
ExecutionTime = 0.136782 s  ClockTime = 0 s

Time = 42s

smoothSolver:  Solving for Ux, Initial residual = 0.00573339, Final residual = 0.000475386, No Iterations 5
smoothSolver:  Solving for Uy, Initial residual = 0.0263433, Final residual = 0.00258497, No Iterations 5
Pressure gradient source: uncorrected Ubar = 1.00006, pressure gradient = 4.67985
GAMG:  Solving for p, Initial residual = 0.00147746, Final residual = 0.000118428, No Iterations 6
time step continuity errors : sum local = 0.000616697, global = 6.78711e-17, cumulative = -1.21456e-16
Pressure gradient source: uncorrected Ubar = 0.999891, pressure gradient = 4.78049
smoothSolver:  Solving for omega, Initial residual = 0.00600779, Final residual = 0.000426236, No Iterations 6
smoothSolver:  Solving for k, Initial residual = 0.0082287, Final residual = 0.000639272, No Iterations 6
ExecutionTime = 0.139622 s  ClockTime = 0 s

Time = 43s

smoothSolver:  Solving for Ux, Initial residual = 0.00558798, Final residual = 0.000464365, No Iterations 5
smoothSolver:  Solving for Uy, Initial residual = 0.0255441, Final residual = 0.00254715, No Iterations 5
Pressure gradient source: uncorrected Ubar = 1.0001, pressure gradient = 4.71771
GAMG:  Solving for p, Initial residual = 0.00131057, Final residual = 0.000103174, No Iterations 8
time step continuity errors : sum local = 0.000502513, global = 1.39319e-17, cumulative = -1.07524e-16
Pressure gradient source: uncorrected Ubar = 0.9999, pressure gradient = 4.84473
smoothSolver:  Solving for omega, Initial residual = 0.00571121, Final residual = 0.000415223, No Iterations 6
smoothSolver:  Solving for k, Initial residual = 0.00771819, Final residual = 0.000593214, No Iterations 6
ExecutionTime = 0.142746 s  ClockTime = 0 s

Time = 44s

smoothSolver:  Solving for Ux, Initial residual = 0.00545241, Final residual = 0.000454399, No Iterations 5
smoothSolver:  Solving for Uy, Initial residual = 0.0250436, Final residual = 0.00167021, No Iterations 6
Pressure gradient source: uncorrected Ubar = 1.00004, pressure gradient = 4.8155
GAMG:  Solving for p, Initial residual = 0.00113703, Final residual = 9.74892e-05, No Iterations 8
time step continuity errors : sum local = 0.000427707, global = -3.77031e-17, cumulative = -1.45227e-16
Pressure gradient source: uncorrected Ubar = 0.999893, pressure gradient = 4.91636
smoothSolver:  Solving for omega, Initial residual = 0.00542418, Final residual = 0.000387912, No Iterations 6
smoothSolver:  Solving for k, Initial residual = 0.00734387, Final residual = 0.000560812, No Iterations 6
ExecutionTime = 0.145723 s  ClockTime = 0 s

Time = 45s

smoothSolver:  Solving for Ux, Initial residual = 0.00533072, Final residual = 0.000445459, No Iterations 5
smoothSolver:  Solving for Uy, Initial residual = 0.0250325, Final residual = 0.00175667, No Iterations 6
Pressure gradient source: uncorrected Ubar = 1.00021, pressure gradient = 4.77209
GAMG:  Solving for p, Initial residual = 0.00104159, Final residual = 9.98896e-05, No Iterations 12
time step continuity errors : sum local = 0.000383882, global = 1.37287e-17, cumulative = -1.31498e-16
Pressure gradient source: uncorrected Ubar = 0.99992, pressure gradient = 4.97285
smoothSolver:  Solving for omega, Initial residual = 0.00514799, Final residual = 0.000380572, No Iterations 6
smoothSolver:  Solving for k, Initial residual = 0.00705042, Final residual = 0.000521436, No Iterations 6
ExecutionTime = 0.148947 s  ClockTime = 0 s

Time = 46s

smoothSolver:  Solving for Ux, Initial residual = 0.005216, Final residual = 0.000437042, No Iterations 5
smoothSolver:  Solving for Uy, Initial residual = 0.0259194, Final residual = 0.00181092, No Iterations 6
Pressure gradient source: uncorrected Ubar = 1.00023, pressure gradient = 4.80474
GAMG:  Solving for p, Initial residual = 0.000996376, Final residual = 8.65084e-05, No Iterations 12
time step continuity errors : sum local = 0.000302202, global = 3.34612e-17, cumulative = -9.80368e-17
Pressure gradient source: uncorrected Ubar = 0.999926, pressure gradient = 5.02755
smoothSolver:  Solving for omega, Initial residual = 0.00489021, Final residual = 0.000360057, No Iterations 6
smoothSolver:  Solving for k, Initial residual = 0.00686365, Final residual = 0.000507506, No Iterations 6
ExecutionTime = 0.152234 s  ClockTime = 0 s

Time = 47s

smoothSolver:  Solving for Ux, Initial residual = 0.00510818, Final residual = 0.000429514, No Iterations 5
smoothSolver:  Solving for Uy, Initial residual = 0.0264578, Final residual = 0.00188783, No Iterations 6
Pressure gradient source: uncorrected Ubar = 1.00023, pressure gradient = 4.85239
GAMG:  Solving for p, Initial residual = 0.000913045, Final residual = 8.13391e-05, No Iterations 10
time step continuity errors : sum local = 0.000248634, global = -1.16145e-17, cumulative = -1.09651e-16
Pressure gradient source: uncorrected Ubar = 0.999927, pressure gradient = 5.08325
smoothSolver:  Solving for omega, Initial residual = 0.00467255, Final residual = 0.000340714, No Iterations 6
smoothSolver:  Solving for k, Initial residual = 0.00674926, Final residual = 0.000499717, No Iterations 6
ExecutionTime = 0.155331 s  ClockTime = 0 s

Time = 48s

smoothSolver:  Solving for Ux, Initial residual = 0.00500817, Final residual = 0.000423, No Iterations 5
smoothSolver:  Solving for Uy, Initial residual = 0.0267884, Final residual = 0.00195356, No Iterations 6
Pressure gradient source: uncorrected Ubar = 1.00029, pressure gradient = 4.8503
GAMG:  Solving for p, Initial residual = 0.000766297, Final residual = 7.43762e-05, No Iterations 8
time step continuity errors : sum local = 0.00018341, global = -3.51959e-17, cumulative = -1.44847e-16
Pressure gradient source: uncorrected Ubar = 0.999939, pressure gradient = 5.13203
smoothSolver:  Solving for omega, Initial residual = 0.00446019, Final residual = 0.00033211, No Iterations 6
smoothSolver:  Solving for k, Initial residual = 0.00666642, Final residual = 0.000502188, No Iterations 6
ExecutionTime = 0.158631 s  ClockTime = 0 s

Time = 49s

smoothSolver:  Solving for Ux, Initial residual = 0.00491531, Final residual = 0.000416754, No Iterations 5
smoothSolver:  Solving for Uy, Initial residual = 0.0277026, Final residual = 0.00200735, No Iterations 6
Pressure gradient source: uncorrected Ubar = 1.00028, pressure gradient = 4.89988
GAMG:  Solving for p, Initial residual = 0.000720984, Final residual = 6.91283e-05, No Iterations 7
time step continuity errors : sum local = 0.000157704, global = 6.17727e-17, cumulative = -8.30745e-17
Pressure gradient source: uncorrected Ubar = 0.999939, pressure gradient = 5.18282
smoothSolver:  Solving for omega, Initial residual = 0.00424395, Final residual = 0.000315355, No Iterations 6
smoothSolver:  Solving for k, Initial residual = 0.00656539, Final residual = 0.000496005, No Iterations 6
ExecutionTime = 0.161651 s  ClockTime = 0 s

Time = 50s

smoothSolver:  Solving for Ux, Initial residual = 0.00482709, Final residual = 0.000410626, No Iterations 5
smoothSolver:  Solving for Uy, Initial residual = 0.0279211, Final residual = 0.00205008, No Iterations 6
Pressure gradient source: uncorrected Ubar = 1.00028, pressure gradient = 4.94009
GAMG:  Solving for p, Initial residual = 0.000617001, Final residual = 4.33469e-05, No Iterations 9
time step continuity errors : sum local = 0.000127496, global = -3.04254e-17, cumulative = -1.135e-16
Pressure gradient source: uncorrected Ubar = 0.999941, pressure gradient = 5.23389
smoothSolver:  Solving for omega, Initial residual = 0.00405322, Final residual = 0.000299819, No Iterations 6
smoothSolver:  Solving for k, Initial residual = 0.00651992, Final residual = 0.000495889, No Iterations 6
ExecutionTime = 0.164661 s  ClockTime = 0 s

Time = 51s

smoothSolver:  Solving for Ux, Initial residual = 0.00474217, Final residual = 0.000404836, No Iterations 5
smoothSolver:  Solving for Uy, Initial residual = 0.0280152, Final residual = 0.00205555, No Iterations 6
Pressure gradient source: uncorrected Ubar = 1.00031, pressure gradient = 4.95496
GAMG:  Solving for p, Initial residual = 0.000538928, Final residual = 5.03256e-05, No Iterations 9
time step continuity errors : sum local = 0.000158682, global = 3.63885e-17, cumulative = -7.71113e-17
Pressure gradient source: uncorrected Ubar = 0.999947, pressure gradient = 5.2813
smoothSolver:  Solving for omega, Initial residual = 0.00389888, Final residual = 0.000293257, No Iterations 6
smoothSolver:  Solving for k, Initial residual = 0.00644682, Final residual = 0.000492328, No Iterations 6
ExecutionTime = 0.167849 s  ClockTime = 0 s

Time = 52s

smoothSolver:  Solving for Ux, Initial residual = 0.00466122, Final residual = 0.000399712, No Iterations 5
smoothSolver:  Solving for Uy, Initial residual = 0.027759, Final residual = 0.00204596, No Iterations 6
Pressure gradient source: uncorrected Ubar = 1.00032, pressure gradient = 4.9869
GAMG:  Solving for p, Initial residual = 0.000506937, Final residual = 4.59553e-05, No Iterations 11
time step continuity errors : sum local = 0.000148057, global = 5.3319e-17, cumulative = -2.37923e-17
Pressure gradient source: uncorrected Ubar = 0.99995, pressure gradient = 5.32825
smoothSolver:  Solving for omega, Initial residual = 0.00372734, Final residual = 0.000285051, No Iterations 6
smoothSolver:  Solving for k, Initial residual = 0.00637784, Final residual = 0.000485023, No Iterations 6
ExecutionTime = 0.171042 s  ClockTime = 0 s

Time = 53s

smoothSolver:  Solving for Ux, Initial residual = 0.00458654, Final residual = 0.000394716, No Iterations 5
smoothSolver:  Solving for Uy, Initial residual = 0.0275434, Final residual = 0.00203692, No Iterations 6
Pressure gradient source: uncorrected Ubar = 1.00036, pressure gradient = 4.98334
GAMG:  Solving for p, Initial residual = 0.000484168, Final residual = 4.54651e-05, No Iterations 11
time step continuity errors : sum local = 0.00014432, global = 1.16044e-17, cumulative = -1.2188e-17
Pressure gradient source: uncorrected Ubar = 0.999958, pressure gradient = 5.36894
smoothSolver:  Solving for omega, Initial residual = 0.00356735, Final residual = 0.000266291, No Iterations 6
smoothSolver:  Solving for k, Initial residual = 0.00634908, Final residual = 0.000487326, No Iterations 6
ExecutionTime = 0.174199 s  ClockTime = 0 s

Time = 54s

smoothSolver:  Solving for Ux, Initial residual = 0.00451634, Final residual = 0.000389997, No Iterations 5
smoothSolver:  Solving for Uy, Initial residual = 0.0268655, Final residual = 0.00199874, No Iterations 6
Pressure gradient source: uncorrected Ubar = 1.00038, pressure gradient = 4.99081
GAMG:  Solving for p, Initial residual = 0.000433546, Final residual = 3.80233e-05, No Iterations 12
time step continuity errors : sum local = 0.000121249, global = -2.06676e-18, cumulative = -1.42547e-17
Pressure gradient source: uncorrected Ubar = 0.999963, pressure gradient = 5.40587
smoothSolver:  Solving for omega, Initial residual = 0.00342503, Final residual = 0.000260176, No Iterations 6
smoothSolver:  Solving for k, Initial residual = 0.00634312, Final residual = 0.000485985, No Iterations 6
ExecutionTime = 0.177706 s  ClockTime = 0 s

Time = 55s

smoothSolver:  Solving for Ux, Initial residual = 0.00444698, Final residual = 0.000385234, No Iterations 5
smoothSolver:  Solving for Uy, Initial residual = 0.0258908, Final residual = 0.00195327, No Iterations 6
Pressure gradient source: uncorrected Ubar = 1.00034, pressure gradient = 5.05408
GAMG:  Solving for p, Initial residual = 0.000415095, Final residual = 4.14077e-05, No Iterations 8
time step continuity errors : sum local = 0.000126877, global = -2.6441e-17, cumulative = -4.06957e-17
Pressure gradient source: uncorrected Ubar = 0.999958, pressure gradient = 5.44872
smoothSolver:  Solving for omega, Initial residual = 0.00328969, Final residual = 0.00025167, No Iterations 6
smoothSolver:  Solving for k, Initial residual = 0.006308, Final residual = 0.000488947, No Iterations 6
ExecutionTime = 0.180753 s  ClockTime = 0 s

Time = 56s

smoothSolver:  Solving for Ux, Initial residual = 0.00438113, Final residual = 0.000380975, No Iterations 5
smoothSolver:  Solving for Uy, Initial residual = 0.0246734, Final residual = 0.0018768, No Iterations 6
Pressure gradient source: uncorrected Ubar = 1.00038, pressure gradient = 5.04582
GAMG:  Solving for p, Initial residual = 0.000397994, Final residual = 3.72396e-05, No Iterations 8
time step continuity errors : sum local = 0.000108513, global = 2.46792e-17, cumulative = -1.60165e-17
Pressure gradient source: uncorrected Ubar = 0.999966, pressure gradient = 5.48505
smoothSolver:  Solving for omega, Initial residual = 0.00316006, Final residual = 0.000242872, No Iterations 6
smoothSolver:  Solving for k, Initial residual = 0.00627589, Final residual = 0.000483455, No Iterations 6
ExecutionTime = 0.183748 s  ClockTime = 0 s

Time = 57s

smoothSolver:  Solving for Ux, Initial residual = 0.00431789, Final residual = 0.000376984, No Iterations 5
smoothSolver:  Solving for Uy, Initial residual = 0.0235397, Final residual = 0.0017942, No Iterations 6
Pressure gradient source: uncorrected Ubar = 1.00038, pressure gradient = 5.06983
GAMG:  Solving for p, Initial residual = 0.000368005, Final residual = 3.60961e-05, No Iterations 6
time step continuity errors : sum local = 0.00010002, global = -7.26822e-17, cumulative = -8.86988e-17
Pressure gradient source: uncorrected Ubar = 0.999967, pressure gradient = 5.52097
smoothSolver:  Solving for omega, Initial residual = 0.00303229, Final residual = 0.000228884, No Iterations 6
smoothSolver:  Solving for k, Initial residual = 0.00625072, Final residual = 0.000489185, No Iterations 6
ExecutionTime = 0.1867 s  ClockTime = 0 s

Time = 58s

smoothSolver:  Solving for Ux, Initial residual = 0.00425857, Final residual = 0.000373046, No Iterations 5
smoothSolver:  Solving for Uy, Initial residual = 0.022646, Final residual = 0.00173176, No Iterations 6
Pressure gradient source: uncorrected Ubar = 1.00041, pressure gradient = 5.05754
GAMG:  Solving for p, Initial residual = 0.000345568, Final residual = 2.72081e-05, No Iterations 8
time step continuity errors : sum local = 7.25903e-05, global = 3.06219e-17, cumulative = -5.80768e-17
Pressure gradient source: uncorrected Ubar = 0.999974, pressure gradient = 5.55057
smoothSolver:  Solving for omega, Initial residual = 0.00292893, Final residual = 0.000225197, No Iterations 6
smoothSolver:  Solving for k, Initial residual = 0.00622815, Final residual = 0.000486115, No Iterations 6
ExecutionTime = 0.189788 s  ClockTime = 0 s

Time = 59s

smoothSolver:  Solving for Ux, Initial residual = 0.00420114, Final residual = 0.00036913, No Iterations 5
smoothSolver:  Solving for Uy, Initial residual = 0.0218897, Final residual = 0.00168468, No Iterations 6
Pressure gradient source: uncorrected Ubar = 1.0004, pressure gradient = 5.08692
GAMG:  Solving for p, Initial residual = 0.000330781, Final residual = 2.86018e-05, No Iterations 6
time step continuity errors : sum local = 6.69718e-05, global = -1.77334e-17, cumulative = -7.58103e-17
Pressure gradient source: uncorrected Ubar = 0.999973, pressure gradient = 5.58166
smoothSolver:  Solving for omega, Initial residual = 0.00281829, Final residual = 0.000218161, No Iterations 6
smoothSolver:  Solving for k, Initial residual = 0.0061848, Final residual = 0.000485773, No Iterations 6
ExecutionTime = 0.192761 s  ClockTime = 0 s

Time = 60s

smoothSolver:  Solving for Ux, Initial residual = 0.00414598, Final residual = 0.000365354, No Iterations 5
smoothSolver:  Solving for Uy, Initial residual = 0.0206317, Final residual = 0.00160279, No Iterations 6
Pressure gradient source: uncorrected Ubar = 1.00042, pressure gradient = 5.08177
GAMG:  Solving for p, Initial residual = 0.000321762, Final residual = 3.21178e-05, No Iterations 5
time step continuity errors : sum local = 6.43438e-05, global = 7.51623e-17, cumulative = -6.47922e-19
Pressure gradient source: uncorrected Ubar = 0.999978, pressure gradient = 5.60829
smoothSolver:  Solving for omega, Initial residual = 0.00271526, Final residual = 0.000213239, No Iterations 6
smoothSolver:  Solving for k, Initial residual = 0.00615576, Final residual = 0.000483752, No Iterations 6
ExecutionTime = 0.195652 s  ClockTime = 0 s

Time = 61s

smoothSolver:  Solving for Ux, Initial residual = 0.00409195, Final residual = 0.000361886, No Iterations 5
smoothSolver:  Solving for Uy, Initial residual = 0.0199535, Final residual = 0.00153772, No Iterations 6
Pressure gradient source: uncorrected Ubar = 1.00042, pressure gradient = 5.09483
GAMG:  Solving for p, Initial residual = 0.000313619, Final residual = 2.53602e-05, No Iterations 6
time step continuity errors : sum local = 4.61588e-05, global = -2.23447e-17, cumulative = -2.29927e-17
Pressure gradient source: uncorrected Ubar = 0.999979, pressure gradient = 5.63403
smoothSolver:  Solving for omega, Initial residual = 0.00262788, Final residual = 0.000206208, No Iterations 6
smoothSolver:  Solving for k, Initial residual = 0.00610826, Final residual = 0.00048197, No Iterations 6
ExecutionTime = 0.198654 s  ClockTime = 0 s

Time = 62s

smoothSolver:  Solving for Ux, Initial residual = 0.00404125, Final residual = 0.000358571, No Iterations 5
smoothSolver:  Solving for Uy, Initial residual = 0.0188902, Final residual = 0.00144459, No Iterations 6
Pressure gradient source: uncorrected Ubar = 1.00044, pressure gradient = 5.07635
GAMG:  Solving for p, Initial residual = 0.000291396, Final residual = 2.562e-05, No Iterations 6
time step continuity errors : sum local = 3.6293e-05, global = -1.04893e-16, cumulative = -1.27886e-16
Pressure gradient source: uncorrected Ubar = 0.999985, pressure gradient = 5.65368
smoothSolver:  Solving for omega, Initial residual = 0.00253569, Final residual = 0.000201295, No Iterations 6
smoothSolver:  Solving for k, Initial residual = 0.00609414, Final residual = 0.000481345, No Iterations 6
ExecutionTime = 0.20158 s  ClockTime = 0 s

Time = 63s

smoothSolver:  Solving for Ux, Initial residual = 0.00399237, Final residual = 0.000355249, No Iterations 5
smoothSolver:  Solving for Uy, Initial residual = 0.0183692, Final residual = 0.00137403, No Iterations 6
Pressure gradient source: uncorrected Ubar = 1.00043, pressure gradient = 5.09648
GAMG:  Solving for p, Initial residual = 0.000265067, Final residual = 2.37953e-05, No Iterations 6
time step continuity errors : sum local = 3.82711e-05, global = -9.27674e-18, cumulative = -1.37163e-16
Pressure gradient source: uncorrected Ubar = 0.999984, pressure gradient = 5.67469
smoothSolver:  Solving for omega, Initial residual = 0.00243945, Final residual = 0.000188471, No Iterations 6
smoothSolver:  Solving for k, Initial residual = 0.0060622, Final residual = 0.000482866, No Iterations 6
ExecutionTime = 0.204441 s  ClockTime = 0 s

Time = 64s

smoothSolver:  Solving for Ux, Initial residual = 0.00394483, Final residual = 0.000352012, No Iterations 5
smoothSolver:  Solving for Uy, Initial residual = 0.0177699, Final residual = 0.00130846, No Iterations 6
Pressure gradient source: uncorrected Ubar = 1.00045, pressure gradient = 5.07086
GAMG:  Solving for p, Initial residual = 0.000275206, Final residual = 2.68001e-05, No Iterations 5
time step continuity errors : sum local = 4.56988e-05, global = -1.33763e-17, cumulative = -1.50539e-16
Pressure gradient source: uncorrected Ubar = 0.999989, pressure gradient = 5.68911
smoothSolver:  Solving for omega, Initial residual = 0.00236478, Final residual = 0.000185485, No Iterations 6
smoothSolver:  Solving for k, Initial residual = 0.00601819, Final residual = 0.000476993, No Iterations 6
ExecutionTime = 0.207786 s  ClockTime = 0 s

Time = 65s

smoothSolver:  Solving for Ux, Initial residual = 0.00389833, Final residual = 0.000348919, No Iterations 5
smoothSolver:  Solving for Uy, Initial residual = 0.0173554, Final residual = 0.00127283, No Iterations 6
Pressure gradient source: uncorrected Ubar = 1.00045, pressure gradient = 5.07209
GAMG:  Solving for p, Initial residual = 0.000264904, Final residual = 2.25107e-05, No Iterations 5
time step continuity errors : sum local = 3.63728e-05, global = -7.98921e-18, cumulative = -1.58528e-16
Pressure gradient source: uncorrected Ubar = 0.99999, pressure gradient = 5.70237
smoothSolver:  Solving for omega, Initial residual = 0.00229974, Final residual = 0.000182572, No Iterations 6
smoothSolver:  Solving for k, Initial residual = 0.00598237, Final residual = 0.000477944, No Iterations 6
ExecutionTime = 0.210733 s  ClockTime = 0 s

Time = 66s

smoothSolver:  Solving for Ux, Initial residual = 0.00385374, Final residual = 0.000346079, No Iterations 5
smoothSolver:  Solving for Uy, Initial residual = 0.0166596, Final residual = 0.0012074, No Iterations 6
Pressure gradient source: uncorrected Ubar = 1.00046, pressure gradient = 5.0497
GAMG:  Solving for p, Initial residual = 0.000259129, Final residual = 2.23229e-05, No Iterations 10
time step continuity errors : sum local = 3.70963e-05, global = -2.5926e-17, cumulative = -1.84454e-16
Pressure gradient source: uncorrected Ubar = 0.999994, pressure gradient = 5.7106
smoothSolver:  Solving for omega, Initial residual = 0.00223409, Final residual = 0.00017724, No Iterations 6
smoothSolver:  Solving for k, Initial residual = 0.00593936, Final residual = 0.000470976, No Iterations 6
ExecutionTime = 0.21389 s  ClockTime = 0 s

Time = 67s

smoothSolver:  Solving for Ux, Initial residual = 0.00381151, Final residual = 0.000343265, No Iterations 5
smoothSolver:  Solving for Uy, Initial residual = 0.0163275, Final residual = 0.00116768, No Iterations 6
Pressure gradient source: uncorrected Ubar = 1.00048, pressure gradient = 5.01802
GAMG:  Solving for p, Initial residual = 0.000257284, Final residual = 2.54648e-05, No Iterations 10
time step continuity errors : sum local = 4.18591e-05, global = 5.70087e-17, cumulative = -1.27445e-16
Pressure gradient source: uncorrected Ubar = 0.999998, pressure gradient = 5.71299
smoothSolver:  Solving for omega, Initial residual = 0.00216478, Final residual = 0.000168441, No Iterations 6
smoothSolver:  Solving for k, Initial residual = 0.00592925, Final residual = 0.000476227, No Iterations 6
ExecutionTime = 0.217129 s  ClockTime = 0 s

Time = 68s

smoothSolver:  Solving for Ux, Initial residual = 0.00377164, Final residual = 0.0003406, No Iterations 5
smoothSolver:  Solving for Uy, Initial residual = 0.0157542, Final residual = 0.00112281, No Iterations 6
Pressure gradient source: uncorrected Ubar = 1.00049, pressure gradient = 4.98925
GAMG:  Solving for p, Initial residual = 0.000258153, Final residual = 2.33964e-05, No Iterations 12
time step continuity errors : sum local = 3.89122e-05, global = 7.20791e-17, cumulative = -5.53663e-17
Pressure gradient source: uncorrected Ubar = 1, pressure gradient = 5.71091
smoothSolver:  Solving for omega, Initial residual = 0.00211628, Final residual = 0.000170231, No Iterations 6
smoothSolver:  Solving for k, Initial residual = 0.00588409, Final residual = 0.000468799, No Iterations 6
ExecutionTime = 0.220338 s  ClockTime = 0 s

Time = 69s

smoothSolver:  Solving for Ux, Initial residual = 0.00373219, Final residual = 0.00033791, No Iterations 5
smoothSolver:  Solving for Uy, Initial residual = 0.0154423, Final residual = 0.00109795, No Iterations 6
Pressure gradient source: uncorrected Ubar = 1.00048, pressure gradient = 4.97178
GAMG:  Solving for p, Initial residual = 0.000250327, Final residual = 2.41172e-05, No Iterations 12
time step continuity errors : sum local = 3.91659e-05, global = -1.64663e-17, cumulative = -7.18326e-17
Pressure gradient source: uncorrected Ubar = 1, pressure gradient = 5.70691
smoothSolver:  Solving for omega, Initial residual = 0.00206541, Final residual = 0.000165219, No Iterations 6
smoothSolver:  Solving for k, Initial residual = 0.00585551, Final residual = 0.000469271, No Iterations 6
ExecutionTime = 0.223454 s  ClockTime = 0 s

Time = 70s

smoothSolver:  Solving for Ux, Initial residual = 0.00369367, Final residual = 0.000335403, No Iterations 5
smoothSolver:  Solving for Uy, Initial residual = 0.0152116, Final residual = 0.00108335, No Iterations 6
Pressure gradient source: uncorrected Ubar = 1.00049, pressure gradient = 4.93526
GAMG:  Solving for p, Initial residual = 0.000248279, Final residual = 2.18595e-05, No Iterations 14
time step continuity errors : sum local = 3.51493e-05, global = -4.11116e-17, cumulative = -1.12944e-16
Pressure gradient source: uncorrected Ubar = 1.00001, pressure gradient = 5.69788
smoothSolver:  Solving for omega, Initial residual = 0.00202228, Final residual = 0.000161912, No Iterations 6
smoothSolver:  Solving for k, Initial residual = 0.0058179, Final residual = 0.000465991, No Iterations 6
ExecutionTime = 0.227026 s  ClockTime = 0 s

Time = 71s

smoothSolver:  Solving for Ux, Initial residual = 0.00365659, Final residual = 0.000333137, No Iterations 5
smoothSolver:  Solving for Uy, Initial residual = 0.0151605, Final residual = 0.00108195, No Iterations 6
Pressure gradient source: uncorrected Ubar = 1.0005, pressure gradient = 4.89554
GAMG:  Solving for p, Initial residual = 0.000230898, Final residual = 1.97446e-05, No Iterations 16
time step continuity errors : sum local = 3.10025e-05, global = 7.51962e-17, cumulative = -3.7748e-17
Pressure gradient source: uncorrected Ubar = 1.00001, pressure gradient = 5.68406
smoothSolver:  Solving for omega, Initial residual = 0.00197991, Final residual = 0.000158229, No Iterations 6
smoothSolver:  Solving for k, Initial residual = 0.00580632, Final residual = 0.00046943, No Iterations 6
ExecutionTime = 0.230535 s  ClockTime = 0 s

Time = 72s

smoothSolver:  Solving for Ux, Initial residual = 0.00362083, Final residual = 0.000330877, No Iterations 5
smoothSolver:  Solving for Uy, Initial residual = 0.0148221, Final residual = 0.00106518, No Iterations 6
Pressure gradient source: uncorrected Ubar = 1.00051, pressure gradient = 4.85831
GAMG:  Solving for p, Initial residual = 0.000225398, Final residual = 2.24914e-05, No Iterations 14
time step continuity errors : sum local = 3.37784e-05, global = 4.01223e-17, cumulative = 2.37423e-18
Pressure gradient source: uncorrected Ubar = 1.00001, pressure gradient = 5.66662
smoothSolver:  Solving for omega, Initial residual = 0.00194705, Final residual = 0.000155617, No Iterations 6
smoothSolver:  Solving for k, Initial residual = 0.00576378, Final residual = 0.000463888, No Iterations 6
ExecutionTime = 0.233931 s  ClockTime = 0 s

Time = 73s

smoothSolver:  Solving for Ux, Initial residual = 0.00358796, Final residual = 0.000328723, No Iterations 5
smoothSolver:  Solving for Uy, Initial residual = 0.0148242, Final residual = 0.00107921, No Iterations 6
Pressure gradient source: uncorrected Ubar = 1.00052, pressure gradient = 4.79628
GAMG:  Solving for p, Initial residual = 0.000236698, Final residual = 2.31544e-05, No Iterations 14
time step continuity errors : sum local = 3.34902e-05, global = -1.72659e-17, cumulative = -1.48917e-17
Pressure gradient source: uncorrected Ubar = 1.00001, pressure gradient = 5.64177
smoothSolver:  Solving for omega, Initial residual = 0.00191059, Final residual = 0.000153361, No Iterations 6
smoothSolver:  Solving for k, Initial residual = 0.00573789, Final residual = 0.000465445, No Iterations 6
ExecutionTime = 0.237298 s  ClockTime = 0 s

Time = 74s

smoothSolver:  Solving for Ux, Initial residual = 0.00355585, Final residual = 0.000326621, No Iterations 5
smoothSolver:  Solving for Uy, Initial residual = 0.0146006, Final residual = 0.00107167, No Iterations 6
Pressure gradient source: uncorrected Ubar = 1.00051, pressure gradient = 4.76462
GAMG:  Solving for p, Initial residual = 0.000238131, Final residual = 2.2676e-05, No Iterations 14
time step continuity errors : sum local = 3.1861e-05, global = 1.53347e-17, cumulative = 4.42999e-19
Pressure gradient source: uncorrected Ubar = 1.00002, pressure gradient = 5.61597
smoothSolver:  Solving for omega, Initial residual = 0.00187853, Final residual = 0.000149545, No Iterations 6
smoothSolver:  Solving for k, Initial residual = 0.00569097, Final residual = 0.000458155, No Iterations 6
ExecutionTime = 0.240552 s  ClockTime = 0 s

Time = 75s

smoothSolver:  Solving for Ux, Initial residual = 0.00352493, Final residual = 0.000324628, No Iterations 5
smoothSolver:  Solving for Uy, Initial residual = 0.0145001, Final residual = 0.00107919, No Iterations 6
Pressure gradient source: uncorrected Ubar = 1.00052, pressure gradient = 4.71468
GAMG:  Solving for p, Initial residual = 0.000222883, Final residual = 1.91731e-05, No Iterations 16
time step continuity errors : sum local = 2.64678e-05, global = -1.5233e-17, cumulative = -1.479e-17
Pressure gradient source: uncorrected Ubar = 1.00002, pressure gradient = 5.58605
smoothSolver:  Solving for omega, Initial residual = 0.00183984, Final residual = 0.000144807, No Iterations 6
smoothSolver:  Solving for k, Initial residual = 0.00568222, Final residual = 0.000462266, No Iterations 6
ExecutionTime = 0.244019 s  ClockTime = 0 s

Time = 76s

smoothSolver:  Solving for Ux, Initial residual = 0.00349507, Final residual = 0.000322922, No Iterations 5
smoothSolver:  Solving for Uy, Initial residual = 0.0146294, Final residual = 0.00109363, No Iterations 6
Pressure gradient source: uncorrected Ubar = 1.00052, pressure gradient = 4.66059
GAMG:  Solving for p, Initial residual = 0.000212407, Final residual = 1.83713e-05, No Iterations 16
time step continuity errors : sum local = 2.43673e-05, global = 3.95802e-17, cumulative = 2.47901e-17
Pressure gradient source: uncorrected Ubar = 1.00002, pressure gradient = 5.55188
smoothSolver:  Solving for omega, Initial residual = 0.00180782, Final residual = 0.000142823, No Iterations 6
smoothSolver:  Solving for k, Initial residual = 0.00565282, Final residual = 0.00045825, No Iterations 6
ExecutionTime = 0.247425 s  ClockTime = 0 s

Time = 77s

smoothSolver:  Solving for Ux, Initial residual = 0.00346557, Final residual = 0.000321239, No Iterations 5
smoothSolver:  Solving for Uy, Initial residual = 0.0143225, Final residual = 0.00108735, No Iterations 6
Pressure gradient source: uncorrected Ubar = 1.00052, pressure gradient = 4.61188
GAMG:  Solving for p, Initial residual = 0.000202544, Final residual = 1.98756e-05, No Iterations 14
time step continuity errors : sum local = 2.53028e-05, global = 8.45e-18, cumulative = 3.32401e-17
Pressure gradient source: uncorrected Ubar = 1.00002, pressure gradient = 5.51511
smoothSolver:  Solving for omega, Initial residual = 0.00177849, Final residual = 0.000142003, No Iterations 6
smoothSolver:  Solving for k, Initial residual = 0.00562201, Final residual = 0.000458028, No Iterations 6
ExecutionTime = 0.250689 s  ClockTime = 0 s

Time = 78s

smoothSolver:  Solving for Ux, Initial residual = 0.00343775, Final residual = 0.000319562, No Iterations 5
smoothSolver:  Solving for Uy, Initial residual = 0.0143264, Final residual = 0.00110188, No Iterations 6
Pressure gradient source: uncorrected Ubar = 1.00052, pressure gradient = 4.55776
GAMG:  Solving for p, Initial residual = 0.000208747, Final residual = 1.96183e-05, No Iterations 14
time step continuity errors : sum local = 2.42102e-05, global = -1.11978e-18, cumulative = 3.21203e-17
Pressure gradient source: uncorrected Ubar = 1.00002, pressure gradient = 5.47519
smoothSolver:  Solving for omega, Initial residual = 0.00175196, Final residual = 0.000139634, No Iterations 6
smoothSolver:  Solving for k, Initial residual = 0.00559572, Final residual = 0.000455595, No Iterations 6
ExecutionTime = 0.254142 s  ClockTime = 0 s

Time = 79s

smoothSolver:  Solving for Ux, Initial residual = 0.00341183, Final residual = 0.000317988, No Iterations 5
smoothSolver:  Solving for Uy, Initial residual = 0.0144754, Final residual = 0.00109267, No Iterations 6
Pressure gradient source: uncorrected Ubar = 1.00053, pressure gradient = 4.48991
GAMG:  Solving for p, Initial residual = 0.000220282, Final residual = 1.97494e-05, No Iterations 14
time step continuity errors : sum local = 2.34516e-05, global = -4.85858e-18, cumulative = 2.72618e-17
Pressure gradient source: uncorrected Ubar = 1.00002, pressure gradient = 5.43013
smoothSolver:  Solving for omega, Initial residual = 0.0017221, Final residual = 0.000138395, No Iterations 6
smoothSolver:  Solving for k, Initial residual = 0.00556632, Final residual = 0.000455083, No Iterations 6
ExecutionTime = 0.257456 s  ClockTime = 0 s

Time = 80s

smoothSolver:  Solving for Ux, Initial residual = 0.00338656, Final residual = 0.00031644, No Iterations 5
smoothSolver:  Solving for Uy, Initial residual = 0.0144958, Final residual = 0.00111823, No Iterations 6
Pressure gradient source: uncorrected Ubar = 1.00052, pressure gradient = 4.44147
GAMG:  Solving for p, Initial residual = 0.000225346, Final residual = 2.02235e-05, No Iterations 14
time step continuity errors : sum local = 2.32311e-05, global = 4.80776e-17, cumulative = 7.53393e-17
Pressure gradient source: uncorrected Ubar = 1.00002, pressure gradient = 5.38428
smoothSolver:  Solving for omega, Initial residual = 0.00169358, Final residual = 0.000136666, No Iterations 6
smoothSolver:  Solving for k, Initial residual = 0.00552882, Final residual = 0.000449592, No Iterations 6
ExecutionTime = 0.260806 s  ClockTime = 0 s

Time = 81s

smoothSolver:  Solving for Ux, Initial residual = 0.00336198, Final residual = 0.000314958, No Iterations 5
smoothSolver:  Solving for Uy, Initial residual = 0.0148177, Final residual = 0.00115162, No Iterations 6
Pressure gradient source: uncorrected Ubar = 1.00051, pressure gradient = 4.38954
GAMG:  Solving for p, Initial residual = 0.000229844, Final residual = 2.00592e-05, No Iterations 14
time step continuity errors : sum local = 2.24234e-05, global = -2.74506e-17, cumulative = 4.78887e-17
Pressure gradient source: uncorrected Ubar = 1.00002, pressure gradient = 5.33707
smoothSolver:  Solving for omega, Initial residual = 0.00166736, Final residual = 0.000135107, No Iterations 6
smoothSolver:  Solving for k, Initial residual = 0.00550059, Final residual = 0.000450265, No Iterations 6
ExecutionTime = 0.264077 s  ClockTime = 0 s

Time = 82s

smoothSolver:  Solving for Ux, Initial residual = 0.00333804, Final residual = 0.000313696, No Iterations 5
smoothSolver:  Solving for Uy, Initial residual = 0.0148864, Final residual = 0.00117002, No Iterations 6
Pressure gradient source: uncorrected Ubar = 1.00051, pressure gradient = 4.333
GAMG:  Solving for p, Initial residual = 0.0002076, Final residual = 1.80568e-05, No Iterations 14
time step continuity errors : sum local = 1.9333e-05, global = 4.68511e-17, cumulative = 9.47398e-17
Pressure gradient source: uncorrected Ubar = 1.00003, pressure gradient = 5.28785
smoothSolver:  Solving for omega, Initial residual = 0.0016419, Final residual = 0.000133254, No Iterations 6
smoothSolver:  Solving for k, Initial residual = 0.00548434, Final residual = 0.000447407, No Iterations 6
ExecutionTime = 0.267495 s  ClockTime = 0 s

Time = 83s

smoothSolver:  Solving for Ux, Initial residual = 0.00331485, Final residual = 0.000312461, No Iterations 5
smoothSolver:  Solving for Uy, Initial residual = 0.0150098, Final residual = 0.00118568, No Iterations 6
Pressure gradient source: uncorrected Ubar = 1.00052, pressure gradient = 4.26006
GAMG:  Solving for p, Initial residual = 0.000204505, Final residual = 1.75129e-05, No Iterations 14
time step continuity errors : sum local = 1.7928e-05, global = -8.96288e-17, cumulative = 5.111e-18
Pressure gradient source: uncorrected Ubar = 1.00003, pressure gradient = 5.23389
smoothSolver:  Solving for omega, Initial residual = 0.00161818, Final residual = 0.00013004, No Iterations 6
smoothSolver:  Solving for k, Initial residual = 0.0054629, Final residual = 0.000449807, No Iterations 6
ExecutionTime = 0.270736 s  ClockTime = 0 s

Time = 84s

smoothSolver:  Solving for Ux, Initial residual = 0.00329302, Final residual = 0.000311335, No Iterations 5
smoothSolver:  Solving for Uy, Initial residual = 0.0151652, Final residual = 0.00120668, No Iterations 6
Pressure gradient source: uncorrected Ubar = 1.00051, pressure gradient = 4.19725
GAMG:  Solving for p, Initial residual = 0.000226931, Final residual = 1.98754e-05, No Iterations 14
time step continuity errors : sum local = 1.90999e-05, global = -4.55975e-17, cumulative = -4.04865e-17
Pressure gradient source: uncorrected Ubar = 1.00003, pressure gradient = 5.17792
smoothSolver:  Solving for omega, Initial residual = 0.00159996, Final residual = 0.000128611, No Iterations 6
smoothSolver:  Solving for k, Initial residual = 0.00542874, Final residual = 0.000444079, No Iterations 6
ExecutionTime = 0.274156 s  ClockTime = 0 s

Time = 85s

smoothSolver:  Solving for Ux, Initial residual = 0.00327264, Final residual = 0.000310216, No Iterations 5
smoothSolver:  Solving for Uy, Initial residual = 0.0156012, Final residual = 0.00122317, No Iterations 6
Pressure gradient source: uncorrected Ubar = 1.00052, pressure gradient = 4.11885
GAMG:  Solving for p, Initial residual = 0.000227723, Final residual = 2.02226e-05, No Iterations 14
time step continuity errors : sum local = 1.90534e-05, global = 8.27382e-18, cumulative = -3.22127e-17
Pressure gradient source: uncorrected Ubar = 1.00003, pressure gradient = 5.11735
smoothSolver:  Solving for omega, Initial residual = 0.00158541, Final residual = 0.000129582, No Iterations 6
smoothSolver:  Solving for k, Initial residual = 0.00542125, Final residual = 0.000448874, No Iterations 6
ExecutionTime = 0.27743 s  ClockTime = 0 s

Time = 86s

smoothSolver:  Solving for Ux, Initial residual = 0.0032528, Final residual = 0.000309121, No Iterations 5
smoothSolver:  Solving for Uy, Initial residual = 0.0156874, Final residual = 0.00124606, No Iterations 6
Pressure gradient source: uncorrected Ubar = 1.00051, pressure gradient = 4.05317
GAMG:  Solving for p, Initial residual = 0.000225522, Final residual = 2.01839e-05, No Iterations 14
time step continuity errors : sum local = 1.86472e-05, global = 1.78419e-17, cumulative = -1.43708e-17
Pressure gradient source: uncorrected Ubar = 1.00003, pressure gradient = 5.0554
smoothSolver:  Solving for omega, Initial residual = 0.0015661, Final residual = 0.000126936, No Iterations 6
smoothSolver:  Solving for k, Initial residual = 0.00539338, Final residual = 0.000444136, No Iterations 6
ExecutionTime = 0.280848 s  ClockTime = 0 s

Time = 87s

smoothSolver:  Solving for Ux, Initial residual = 0.00323363, Final residual = 0.000308089, No Iterations 5
smoothSolver:  Solving for Uy, Initial residual = 0.0158888, Final residual = 0.00126447, No Iterations 6
Pressure gradient source: uncorrected Ubar = 1.00051, pressure gradient = 3.98508
GAMG:  Solving for p, Initial residual = 0.000217766, Final residual = 2.00174e-05, No Iterations 14
time step continuity errors : sum local = 1.80121e-05, global = 1.73066e-17, cumulative = 2.9358e-18
Pressure gradient source: uncorrected Ubar = 1.00003, pressure gradient = 4.99181
smoothSolver:  Solving for omega, Initial residual = 0.00154823, Final residual = 0.000124831, No Iterations 6
smoothSolver:  Solving for k, Initial residual = 0.00537077, Final residual = 0.00044578, No Iterations 6
ExecutionTime = 0.284138 s  ClockTime = 0 s

Time = 88s

smoothSolver:  Solving for Ux, Initial residual = 0.00321495, Final residual = 0.00030719, No Iterations 5
smoothSolver:  Solving for Uy, Initial residual = 0.0158605, Final residual = 0.0012703, No Iterations 6
Pressure gradient source: uncorrected Ubar = 1.0005, pressure gradient = 3.91806
GAMG:  Solving for p, Initial residual = 0.000217185, Final residual = 2.08188e-05, No Iterations 14
time step continuity errors : sum local = 1.76639e-05, global = 4.79827e-17, cumulative = 5.09185e-17
Pressure gradient source: uncorrected Ubar = 1.00003, pressure gradient = 4.92707
smoothSolver:  Solving for omega, Initial residual = 0.00153656, Final residual = 0.000123731, No Iterations 6
smoothSolver:  Solving for k, Initial residual = 0.00534331, Final residual = 0.000440709, No Iterations 6
ExecutionTime = 0.287494 s  ClockTime = 0 s

Time = 89s

smoothSolver:  Solving for Ux, Initial residual = 0.00319677, Final residual = 0.000306372, No Iterations 5
smoothSolver:  Solving for Uy, Initial residual = 0.0156408, Final residual = 0.00125302, No Iterations 6
Pressure gradient source: uncorrected Ubar = 1.0005, pressure gradient = 3.84306
GAMG:  Solving for p, Initial residual = 0.000211825, Final residual = 1.99225e-05, No Iterations 14
time step continuity errors : sum local = 1.62896e-05, global = -3.53924e-17, cumulative = 1.55261e-17
Pressure gradient source: uncorrected Ubar = 1.00003, pressure gradient = 4.85986
smoothSolver:  Solving for omega, Initial residual = 0.00152194, Final residual = 0.000122428, No Iterations 6
[...]
smoothSolver:  Solving for k, Initial residual = 9.87657e-06, Final residual = 9.87657e-06, No Iterations 0
ExecutionTime = 9.81865 s  ClockTime = 10 s

Time = 3745s

smoothSolver:  Solving for Ux, Initial residual = 9.06689e-06, Final residual = 9.06689e-06, No Iterations 0
smoothSolver:  Solving for Uy, Initial residual = 0.000135173, Final residual = 1.20396e-05, No Iterations 5
Pressure gradient source: uncorrected Ubar = 1, pressure gradient = 0.00400879
GAMG:  Solving for p, Initial residual = 2.80893e-05, Final residual = 2.49191e-06, No Iterations 15
time step continuity errors : sum local = 4.32113e-11, global = 5.2304e-19, cumulative = 3.84439e-16
Pressure gradient source: uncorrected Ubar = 1, pressure gradient = 0.00400879
smoothSolver:  Solving for omega, Initial residual = 6.31351e-06, Final residual = 6.31351e-06, No Iterations 0
smoothSolver:  Solving for k, Initial residual = 9.91681e-06, Final residual = 9.91681e-06, No Iterations 0
ExecutionTime = 9.82162 s  ClockTime = 10 s

Time = 3746s

smoothSolver:  Solving for Ux, Initial residual = 9.06006e-06, Final residual = 9.06006e-06, No Iterations 0
smoothSolver:  Solving for Uy, Initial residual = 0.000126825, Final residual = 1.14483e-05, No Iterations 5
Pressure gradient source: uncorrected Ubar = 1, pressure gradient = 0.00400879
GAMG:  Solving for p, Initial residual = 2.70667e-05, Final residual = 2.65815e-06, No Iterations 15
time step continuity errors : sum local = 4.58066e-11, global = 6.72129e-18, cumulative = 3.9116e-16
Pressure gradient source: uncorrected Ubar = 1, pressure gradient = 0.00400879
smoothSolver:  Solving for omega, Initial residual = 6.31348e-06, Final residual = 6.31348e-06, No Iterations 0
smoothSolver:  Solving for k, Initial residual = 9.9572e-06, Final residual = 9.9572e-06, No Iterations 0
ExecutionTime = 9.82459 s  ClockTime = 10 s

Time = 3747s

smoothSolver:  Solving for Ux, Initial residual = 9.05322e-06, Final residual = 9.05322e-06, No Iterations 0
smoothSolver:  Solving for Uy, Initial residual = 0.000121289, Final residual = 1.1089e-05, No Iterations 5
Pressure gradient source: uncorrected Ubar = 1, pressure gradient = 0.00400879
GAMG:  Solving for p, Initial residual = 2.63303e-05, Final residual = 2.63159e-06, No Iterations 15
time step continuity errors : sum local = 4.58333e-11, global = 2.1263e-18, cumulative = 3.93287e-16
Pressure gradient source: uncorrected Ubar = 1, pressure gradient = 0.00400879
smoothSolver:  Solving for omega, Initial residual = 6.31345e-06, Final residual = 6.31345e-06, No Iterations 0
smoothSolver:  Solving for k, Initial residual = 9.99771e-06, Final residual = 9.99771e-06, No Iterations 0
ExecutionTime = 9.8275 s  ClockTime = 10 s

Time = 3748s

smoothSolver:  Solving for Ux, Initial residual = 9.04638e-06, Final residual = 9.04638e-06, No Iterations 0
smoothSolver:  Solving for Uy, Initial residual = 0.000117769, Final residual = 1.08999e-05, No Iterations 5
Pressure gradient source: uncorrected Ubar = 1, pressure gradient = 0.00400879
GAMG:  Solving for p, Initial residual = 2.55936e-05, Final residual = 2.13557e-06, No Iterations 17
time step continuity errors : sum local = 3.80242e-11, global = 5.78972e-18, cumulative = 3.99076e-16
Pressure gradient source: uncorrected Ubar = 1, pressure gradient = 0.00400879
smoothSolver:  Solving for omega, Initial residual = 6.31343e-06, Final residual = 6.31343e-06, No Iterations 0
smoothSolver:  Solving for k, Initial residual = 1.00387e-05, Final residual = 6.18917e-06, No Iterations 1
ExecutionTime = 9.83051 s  ClockTime = 10 s

Time = 3749s

smoothSolver:  Solving for Ux, Initial residual = 9.0394e-06, Final residual = 9.0394e-06, No Iterations 0
smoothSolver:  Solving for Uy, Initial residual = 0.000154987, Final residual = 1.31147e-05, No Iterations 5
Pressure gradient source: uncorrected Ubar = 1, pressure gradient = 0.00400879
GAMG:  Solving for p, Initial residual = 3.50579e-05, Final residual = 2.9429e-06, No Iterations 13
time step continuity errors : sum local = 4.9592e-11, global = -6.24289e-19, cumulative = 3.98452e-16
Pressure gradient source: uncorrected Ubar = 1, pressure gradient = 0.00400882
smoothSolver:  Solving for omega, Initial residual = 6.31345e-06, Final residual = 6.31345e-06, No Iterations 0
smoothSolver:  Solving for k, Initial residual = 9.87774e-06, Final residual = 9.87774e-06, No Iterations 0
ExecutionTime = 9.83335 s  ClockTime = 10 s

Time = 3750s

smoothSolver:  Solving for Ux, Initial residual = 9.03339e-06, Final residual = 9.03339e-06, No Iterations 0
smoothSolver:  Solving for Uy, Initial residual = 0.000133403, Final residual = 1.22879e-05, No Iterations 5
Pressure gradient source: uncorrected Ubar = 1, pressure gradient = 0.00400882
GAMG:  Solving for p, Initial residual = 2.78135e-05, Final residual = 2.46736e-06, No Iterations 15
time step continuity errors : sum local = 4.24665e-11, global = -3.41336e-19, cumulative = 3.98111e-16
Pressure gradient source: uncorrected Ubar = 1, pressure gradient = 0.00400882
smoothSolver:  Solving for omega, Initial residual = 6.31341e-06, Final residual = 6.31341e-06, No Iterations 0
smoothSolver:  Solving for k, Initial residual = 9.91897e-06, Final residual = 9.91897e-06, No Iterations 0
ExecutionTime = 9.83632 s  ClockTime = 10 s

Time = 3751s

smoothSolver:  Solving for Ux, Initial residual = 9.02654e-06, Final residual = 9.02654e-06, No Iterations 0
smoothSolver:  Solving for Uy, Initial residual = 0.000120159, Final residual = 1.14138e-05, No Iterations 5
Pressure gradient source: uncorrected Ubar = 1, pressure gradient = 0.00400882
GAMG:  Solving for p, Initial residual = 2.52468e-05, Final residual = 2.183e-06, No Iterations 17
time step continuity errors : sum local = 3.80088e-11, global = 3.15048e-18, cumulative = 4.01261e-16
Pressure gradient source: uncorrected Ubar = 1, pressure gradient = 0.00400882
smoothSolver:  Solving for omega, Initial residual = 6.31337e-06, Final residual = 6.31337e-06, No Iterations 0
smoothSolver:  Solving for k, Initial residual = 9.96114e-06, Final residual = 9.96114e-06, No Iterations 0
ExecutionTime = 9.8393 s  ClockTime = 10 s

Time = 3752s

smoothSolver:  Solving for Ux, Initial residual = 9.01968e-06, Final residual = 9.01968e-06, No Iterations 0
smoothSolver:  Solving for Uy, Initial residual = 0.000113032, Final residual = 1.08418e-05, No Iterations 5
Pressure gradient source: uncorrected Ubar = 1, pressure gradient = 0.00400882
GAMG:  Solving for p, Initial residual = 2.42723e-05, Final residual = 2.13423e-06, No Iterations 17
time step continuity errors : sum local = 3.75181e-11, global = -4.80679e-20, cumulative = 4.01213e-16
Pressure gradient source: uncorrected Ubar = 1, pressure gradient = 0.00400882
smoothSolver:  Solving for omega, Initial residual = 6.31334e-06, Final residual = 6.31334e-06, No Iterations 0
smoothSolver:  Solving for k, Initial residual = 1.00038e-05, Final residual = 6.17932e-06, No Iterations 1
ExecutionTime = 9.84232 s  ClockTime = 10 s

Time = 3753s

smoothSolver:  Solving for Ux, Initial residual = 9.01243e-06, Final residual = 9.01243e-06, No Iterations 0
smoothSolver:  Solving for Uy, Initial residual = 0.000144429, Final residual = 1.26279e-05, No Iterations 5
Pressure gradient source: uncorrected Ubar = 1, pressure gradient = 0.00400882
GAMG:  Solving for p, Initial residual = 3.32565e-05, Final residual = 3.11266e-06, No Iterations 13
time step continuity errors : sum local = 5.14252e-11, global = 4.23494e-18, cumulative = 4.05448e-16
Pressure gradient source: uncorrected Ubar = 1, pressure gradient = 0.00400885
smoothSolver:  Solving for omega, Initial residual = 6.31335e-06, Final residual = 6.31335e-06, No Iterations 0
smoothSolver:  Solving for k, Initial residual = 9.85029e-06, Final residual = 9.85029e-06, No Iterations 0
ExecutionTime = 9.84511 s  ClockTime = 10 s

Time = 3754s

smoothSolver:  Solving for Ux, Initial residual = 9.00639e-06, Final residual = 9.00639e-06, No Iterations 0
smoothSolver:  Solving for Uy, Initial residual = 0.000123814, Final residual = 1.17244e-05, No Iterations 5
Pressure gradient source: uncorrected Ubar = 1, pressure gradient = 0.00400885
GAMG:  Solving for p, Initial residual = 2.68633e-05, Final residual = 2.23925e-06, No Iterations 17
time step continuity errors : sum local = 3.85291e-11, global = -7.33344e-18, cumulative = 3.98115e-16
Pressure gradient source: uncorrected Ubar = 1, pressure gradient = 0.00400885
smoothSolver:  Solving for omega, Initial residual = 6.31331e-06, Final residual = 6.31331e-06, No Iterations 0
smoothSolver:  Solving for k, Initial residual = 9.89284e-06, Final residual = 9.89284e-06, No Iterations 0
ExecutionTime = 9.8481 s  ClockTime = 10 s

Time = 3755s

smoothSolver:  Solving for Ux, Initial residual = 8.99951e-06, Final residual = 8.99951e-06, No Iterations 0
smoothSolver:  Solving for Uy, Initial residual = 0.000112404, Final residual = 1.08874e-05, No Iterations 5
Pressure gradient source: uncorrected Ubar = 1, pressure gradient = 0.00400885
GAMG:  Solving for p, Initial residual = 2.4307e-05, Final residual = 2.19434e-06, No Iterations 17
time step continuity errors : sum local = 3.8147e-11, global = -8.98296e-18, cumulative = 3.89132e-16
Pressure gradient source: uncorrected Ubar = 1, pressure gradient = 0.00400885
smoothSolver:  Solving for omega, Initial residual = 6.31327e-06, Final residual = 6.31327e-06, No Iterations 0
smoothSolver:  Solving for k, Initial residual = 9.93556e-06, Final residual = 9.93556e-06, No Iterations 0
ExecutionTime = 9.85111 s  ClockTime = 10 s

Time = 3756s

smoothSolver:  Solving for Ux, Initial residual = 8.99261e-06, Final residual = 8.99261e-06, No Iterations 0
smoothSolver:  Solving for Uy, Initial residual = 0.000106232, Final residual = 1.02998e-05, No Iterations 5
Pressure gradient source: uncorrected Ubar = 1, pressure gradient = 0.00400885
GAMG:  Solving for p, Initial residual = 2.33028e-05, Final residual = 2.16105e-06, No Iterations 17
time step continuity errors : sum local = 3.79963e-11, global = -7.35749e-19, cumulative = 3.88396e-16
Pressure gradient source: uncorrected Ubar = 1, pressure gradient = 0.00400885
smoothSolver:  Solving for omega, Initial residual = 6.31323e-06, Final residual = 6.31323e-06, No Iterations 0
smoothSolver:  Solving for k, Initial residual = 9.97908e-06, Final residual = 9.97908e-06, No Iterations 0
ExecutionTime = 9.85412 s  ClockTime = 10 s

Time = 3757s

smoothSolver:  Solving for Ux, Initial residual = 8.98571e-06, Final residual = 8.98571e-06, No Iterations 0
smoothSolver:  Solving for Uy, Initial residual = 0.000102788, Final residual = 9.96882e-06, No Iterations 5
Pressure gradient source: uncorrected Ubar = 1, pressure gradient = 0.00400885
GAMG:  Solving for p, Initial residual = 2.24815e-05, Final residual = 2.11546e-06, No Iterations 17
time step continuity errors : sum local = 3.74934e-11, global = -7.7553e-19, cumulative = 3.8762e-16
Pressure gradient source: uncorrected Ubar = 1, pressure gradient = 0.00400885
smoothSolver:  Solving for omega, Initial residual = 6.31319e-06, Final residual = 6.31319e-06, No Iterations 0
smoothSolver:  Solving for k, Initial residual = 1.00236e-05, Final residual = 6.19996e-06, No Iterations 1
ExecutionTime = 9.85713 s  ClockTime = 10 s

Time = 3758s

smoothSolver:  Solving for Ux, Initial residual = 8.97811e-06, Final residual = 8.97811e-06, No Iterations 0
smoothSolver:  Solving for Uy, Initial residual = 0.000130177, Final residual = 1.19349e-05, No Iterations 5
Pressure gradient source: uncorrected Ubar = 1, pressure gradient = 0.00400885
GAMG:  Solving for p, Initial residual = 3.08672e-05, Final residual = 3.05758e-06, No Iterations 13
time step continuity errors : sum local = 5.08629e-11, global = 3.84689e-18, cumulative = 3.91467e-16
Pressure gradient source: uncorrected Ubar = 1, pressure gradient = 0.00400888
smoothSolver:  Solving for omega, Initial residual = 6.3132e-06, Final residual = 6.3132e-06, No Iterations 0
smoothSolver:  Solving for k, Initial residual = 9.88961e-06, Final residual = 9.88961e-06, No Iterations 0
ExecutionTime = 9.85992 s  ClockTime = 10 s

Time = 3759s

smoothSolver:  Solving for Ux, Initial residual = 8.97201e-06, Final residual = 8.97201e-06, No Iterations 0
smoothSolver:  Solving for Uy, Initial residual = 0.000116195, Final residual = 1.10372e-05, No Iterations 5
Pressure gradient source: uncorrected Ubar = 1, pressure gradient = 0.00400888
GAMG:  Solving for p, Initial residual = 2.50092e-05, Final residual = 2.19685e-06, No Iterations 17
time step continuity errors : sum local = 3.79803e-11, global = 4.98236e-18, cumulative = 3.9645e-16
Pressure gradient source: uncorrected Ubar = 1, pressure gradient = 0.00400888
smoothSolver:  Solving for omega, Initial residual = 6.31316e-06, Final residual = 6.31316e-06, No Iterations 0
smoothSolver:  Solving for k, Initial residual = 9.9346e-06, Final residual = 9.9346e-06, No Iterations 0
ExecutionTime = 9.86292 s  ClockTime = 10 s

Time = 3760s

smoothSolver:  Solving for Ux, Initial residual = 8.96508e-06, Final residual = 8.96508e-06, No Iterations 0
smoothSolver:  Solving for Uy, Initial residual = 0.000106623, Final residual = 1.02196e-05, No Iterations 5
Pressure gradient source: uncorrected Ubar = 1, pressure gradient = 0.00400888
GAMG:  Solving for p, Initial residual = 2.24173e-05, Final residual = 2.15152e-06, No Iterations 17
time step continuity errors : sum local = 3.75437e-11, global = 4.43103e-18, cumulative = 4.00881e-16
Pressure gradient source: uncorrected Ubar = 1, pressure gradient = 0.00400888
smoothSolver:  Solving for omega, Initial residual = 6.31311e-06, Final residual = 6.31311e-06, No Iterations 0
smoothSolver:  Solving for k, Initial residual = 9.97994e-06, Final residual = 9.97994e-06, No Iterations 0
ExecutionTime = 9.86599 s  ClockTime = 10 s

Time = 3761s

smoothSolver:  Solving for Ux, Initial residual = 8.95814e-06, Final residual = 8.95814e-06, No Iterations 0
smoothSolver:  Solving for Uy, Initial residual = 0.000100873, Final residual = 9.63531e-06, No Iterations 5
Pressure gradient source: uncorrected Ubar = 1, pressure gradient = 0.00400888
GAMG:  Solving for p, Initial residual = 2.13815e-05, Final residual = 2.11751e-06, No Iterations 17
time step continuity errors : sum local = 3.73451e-11, global = 3.28237e-18, cumulative = 4.04163e-16
Pressure gradient source: uncorrected Ubar = 1, pressure gradient = 0.00400888
smoothSolver:  Solving for omega, Initial residual = 6.31307e-06, Final residual = 6.31307e-06, No Iterations 0
smoothSolver:  Solving for k, Initial residual = 1.00261e-05, Final residual = 6.21217e-06, No Iterations 1
ExecutionTime = 9.86902 s  ClockTime = 10 s

Time = 3762s

smoothSolver:  Solving for Ux, Initial residual = 8.95025e-06, Final residual = 8.95025e-06, No Iterations 0
smoothSolver:  Solving for Uy, Initial residual = 0.000123022, Final residual = 1.14247e-05, No Iterations 5
Pressure gradient source: uncorrected Ubar = 1, pressure gradient = 0.00400888
GAMG:  Solving for p, Initial residual = 2.94896e-05, Final residual = 2.45939e-06, No Iterations 15
time step continuity errors : sum local = 4.15358e-11, global = -2.42754e-18, cumulative = 4.01736e-16
Pressure gradient source: uncorrected Ubar = 1, pressure gradient = 0.00400891
smoothSolver:  Solving for omega, Initial residual = 6.31308e-06, Final residual = 6.31308e-06, No Iterations 0
smoothSolver:  Solving for k, Initial residual = 9.91038e-06, Final residual = 9.91038e-06, No Iterations 0
ExecutionTime = 9.87197 s  ClockTime = 10 s

Time = 3763s

smoothSolver:  Solving for Ux, Initial residual = 8.94411e-06, Final residual = 8.94411e-06, No Iterations 0
smoothSolver:  Solving for Uy, Initial residual = 0.000112317, Final residual = 1.04886e-05, No Iterations 5
Pressure gradient source: uncorrected Ubar = 1, pressure gradient = 0.00400891
GAMG:  Solving for p, Initial residual = 2.36867e-05, Final residual = 2.08611e-06, No Iterations 17
time step continuity errors : sum local = 3.59325e-11, global = -3.67445e-18, cumulative = 3.98061e-16
Pressure gradient source: uncorrected Ubar = 1, pressure gradient = 0.00400891
smoothSolver:  Solving for omega, Initial residual = 6.31303e-06, Final residual = 6.31303e-06, No Iterations 0
smoothSolver:  Solving for k, Initial residual = 9.95807e-06, Final residual = 9.95807e-06, No Iterations 0
ExecutionTime = 9.87494 s  ClockTime = 10 s

Time = 3764s

smoothSolver:  Solving for Ux, Initial residual = 8.93714e-06, Final residual = 8.93714e-06, No Iterations 0
smoothSolver:  Solving for Uy, Initial residual = 0.000103049, Final residual = 9.60329e-06, No Iterations 5
Pressure gradient source: uncorrected Ubar = 1, pressure gradient = 0.00400891
GAMG:  Solving for p, Initial residual = 2.12695e-05, Final residual = 2.07904e-06, No Iterations 17
time step continuity errors : sum local = 3.6248e-11, global = -2.0376e-18, cumulative = 3.96024e-16
Pressure gradient source: uncorrected Ubar = 1, pressure gradient = 0.00400891
smoothSolver:  Solving for omega, Initial residual = 6.31298e-06, Final residual = 6.31298e-06, No Iterations 0
smoothSolver:  Solving for k, Initial residual = 1.00069e-05, Final residual = 6.21447e-06, No Iterations 1
ExecutionTime = 9.87794 s  ClockTime = 10 s

Time = 3765s

smoothSolver:  Solving for Ux, Initial residual = 8.92903e-06, Final residual = 8.92903e-06, No Iterations 0
smoothSolver:  Solving for Uy, Initial residual = 0.000119772, Final residual = 1.10521e-05, No Iterations 5
Pressure gradient source: uncorrected Ubar = 1, pressure gradient = 0.00400891
GAMG:  Solving for p, Initial residual = 2.92471e-05, Final residual = 2.89732e-06, No Iterations 13
time step continuity errors : sum local = 4.785e-11, global = -4.77391e-18, cumulative = 3.9125e-16
Pressure gradient source: uncorrected Ubar = 1, pressure gradient = 0.00400893
smoothSolver:  Solving for omega, Initial residual = 6.31297e-06, Final residual = 6.31297e-06, No Iterations 0
smoothSolver:  Solving for k, Initial residual = 9.90342e-06, Final residual = 9.90342e-06, No Iterations 0
ExecutionTime = 9.88078 s  ClockTime = 10 s

Time = 3766s

smoothSolver:  Solving for Ux, Initial residual = 8.92284e-06, Final residual = 8.92284e-06, No Iterations 0
smoothSolver:  Solving for Uy, Initial residual = 0.00010916, Final residual = 9.94719e-06, No Iterations 5
Pressure gradient source: uncorrected Ubar = 1, pressure gradient = 0.00400893
GAMG:  Solving for p, Initial residual = 2.38531e-05, Final residual = 2.08206e-06, No Iterations 17
time step continuity errors : sum local = 3.58831e-11, global = 4.60308e-18, cumulative = 3.95853e-16
Pressure gradient source: uncorrected Ubar = 1, pressure gradient = 0.00400893
smoothSolver:  Solving for omega, Initial residual = 6.31292e-06, Final residual = 6.31292e-06, No Iterations 0
smoothSolver:  Solving for k, Initial residual = 9.95479e-06, Final residual = 9.95479e-06, No Iterations 0
ExecutionTime = 9.8838 s  ClockTime = 10 s

Time = 3767s

smoothSolver:  Solving for Ux, Initial residual = 8.91584e-06, Final residual = 8.91584e-06, No Iterations 0
smoothSolver:  Solving for Uy, Initial residual = 9.99015e-05, Final residual = 9.07284e-06, No Iterations 5
Pressure gradient source: uncorrected Ubar = 1, pressure gradient = 0.00400893
GAMG:  Solving for p, Initial residual = 2.12026e-05, Final residual = 2.06463e-06, No Iterations 17
time step continuity errors : sum local = 3.59762e-11, global = 2.23687e-18, cumulative = 3.9809e-16
Pressure gradient source: uncorrected Ubar = 1, pressure gradient = 0.00400893
smoothSolver:  Solving for omega, Initial residual = 6.31287e-06, Final residual = 6.31287e-06, No Iterations 0
smoothSolver:  Solving for k, Initial residual = 1.00077e-05, Final residual = 6.22519e-06, No Iterations 1
ExecutionTime = 9.88678 s  ClockTime = 10 s


SIMPLE solution converged in 3767 iterations

End

