/*---------------------------------------------------------------------------*\
  =========                 |
  \\      /  F ield         | OpenFOAM: The Open Source CFD Toolbox
   \\    /   O peration     | Website:  https://openfoam.org
    \\  /    A nd           | Version:  10
     \\/     M anipulation  |
\*---------------------------------------------------------------------------*/
Build  : 10-e450dce21ea5
Exec   : blockMesh
Date   : Jan 16 2023
Time   : 11:43:54
Host   : "w530-R9YK46P"
PID    : 14420
I/O    : uncollated
Case   : /home/jdmezazeron/gitDanielMezaZ/turbulenceVisualized/Data/SimulationFiles/E23_Re10699
nProcs : 1
sigFpe : Enabling floating point exception trapping (FOAM_SIGFPE).
fileModificationChecking : Monitoring run-time modified files using timeStampMaster (fileModificationSkew 10)
allowSystemOperations : Allowing user-supplied system call operations

// * * * * * * * * * * * * * * * * * * * * * * * * * * * * * * * * * * * * * //
Create time

Reading "blockMeshDict"

Creating block mesh from
    "system/blockMeshDict"
Creating block edges
No non-planar block faces defined
Creating topology blocks
Creating topology patches

Creating block mesh topology

Check topology

	Basic statistics
		Number of internal faces : 0
		Number of boundary faces : 6
		Number of defined boundary faces : 6
		Number of undefined boundary faces : 0
	Checking patch -> block consistency

Creating block offsets
Creating merge list .

Creating polyMesh from blockMesh
Creating patches
Creating cells
Creating points with scale 1
    Block 0 cell size :
        i : 0.5
        j : 0.00921276 .. 0.036851
        k : 2

Detected cyclic patches; ordering boundary faces

Writing polyMesh
----------------
Mesh Information
----------------
  boundingBox: (-1 0 -1) (1 1 1)
  nPoints: 510
  nCells: 200
  nFaces: 854
  nInternalFaces: 346
----------------
Patches
----------------
  patch 0 (start: 346 size: 50) name: inlet
  patch 1 (start: 396 size: 50) name: outlet
  patch 2 (start: 446 size: 4) name: fixedWalls-bottom
  patch 3 (start: 450 size: 4) name: fixedWalls-top
  patch 4 (start: 454 size: 400) name: frontAndBack

End

/*---------------------------------------------------------------------------*\
  =========                 |
  \\      /  F ield         | OpenFOAM: The Open Source CFD Toolbox
   \\    /   O peration     | Website:  https://openfoam.org
    \\  /    A nd           | Version:  10
     \\/     M anipulation  |
\*---------------------------------------------------------------------------*/
Build  : 10-e450dce21ea5
Exec   : simpleFoam
Date   : Jan 16 2023
Time   : 11:43:54
Host   : "w530-R9YK46P"
PID    : 14421
I/O    : uncollated
Case   : /home/jdmezazeron/gitDanielMezaZ/turbulenceVisualized/Data/SimulationFiles/E23_Re10699
nProcs : 1
sigFpe : Enabling floating point exception trapping (FOAM_SIGFPE).
fileModificationChecking : Monitoring run-time modified files using timeStampMaster (fileModificationSkew 10)
allowSystemOperations : Allowing user-supplied system call operations

// * * * * * * * * * * * * * * * * * * * * * * * * * * * * * * * * * * * * * //
Create time

Create mesh for time = 0


SIMPLE: Convergence criteria found
        U: tolerance 0.01
        p: tolerance 0.01
        omega: tolerance 0.0001

Reading field p

Reading field U

Reading/calculating face flux field phi

Selecting viscosity model Newtonian
Selecting turbulence model type RAS
Selecting RAS turbulence model kOmegaSST
Selecting patchDistMethod meshWave
RAS
{
    RASModel        kOmegaSST;
    turbulence      on;
    printCoeffs     on;
    alphaK1         0.85;
    alphaK2         1;
    alphaOmega1     0.5;
    alphaOmega2     0.856;
    gamma1          0.555556;
    gamma2          0.44;
    beta1           0.075;
    beta2           0.0828;
    betaStar        0.09;
    a1              0.31;
    b1              1;
    c1              10;
    F3              false;
}

No MRF models present

--> FOAM Warning : Creating fvModels from "system/fvOptions" rather than constant/fvModels
No fvModels present
--> FOAM Warning : Creating fvConstraints from "system/fvOptions"

Selecting finite volume constraint type meanVelocityForce
    Name: momentumSource
    - selecting all cells
    - selected 200 cell(s) with volume 4
    Initial pressure gradient = 0


Starting time loop

turbulenceFields stressComponents: storing fields:
    R

Time = 1s

smoothSolver:  Solving for Ux, Initial residual = 0, Final residual = 0, No Iterations 0
smoothSolver:  Solving for Uy, Initial residual = 0, Final residual = 0, No Iterations 0
Pressure gradient source: uncorrected Ubar = 0, pressure gradient = 1.43092
GAMG:  Solving for p, Initial residual = 0.99999, Final residual = 0.041732, No Iterations 3
time step continuity errors : sum local = 6.96494e-17, global = 1.31001e-17, cumulative = 1.31001e-17
Pressure gradient source: uncorrected Ubar = 0.869392, pressure gradient = 0.18689
smoothSolver:  Solving for omega, Initial residual = 0.367808, Final residual = 0.0277286, No Iterations 1
bounding omega, min: -12.1132 max: 704.661 average: 31.2644
smoothSolver:  Solving for k, Initial residual = 1, Final residual = 0.0434993, No Iterations 2
ExecutionTime = 0.012907 s  ClockTime = 0 s

Time = 2s

smoothSolver:  Solving for Ux, Initial residual = 0.137571, Final residual = 0.0120538, No Iterations 5
smoothSolver:  Solving for Uy, Initial residual = 1, Final residual = 0.0821492, No Iterations 2
Pressure gradient source: uncorrected Ubar = 1.15885, pressure gradient = -0.860794
GAMG:  Solving for p, Initial residual = 1, Final residual = 0.0982074, No Iterations 8
time step continuity errors : sum local = 0.00579991, global = -1.32812e-18, cumulative = 1.17719e-17
Pressure gradient source: uncorrected Ubar = 1.03733, pressure gradient = -0.0593463
smoothSolver:  Solving for omega, Initial residual = 0.0511588, Final residual = 0.00165365, No Iterations 2
smoothSolver:  Solving for k, Initial residual = 0.265171, Final residual = 0.0226197, No Iterations 3
ExecutionTime = 0.015061 s  ClockTime = 0 s

Time = 3s

smoothSolver:  Solving for Ux, Initial residual = 0.157465, Final residual = 0.0154723, No Iterations 4
smoothSolver:  Solving for Uy, Initial residual = 0.563951, Final residual = 0.034282, No Iterations 3
Pressure gradient source: uncorrected Ubar = 0.944344, pressure gradient = 0.496008
GAMG:  Solving for p, Initial residual = 0.12282, Final residual = 0.0101063, No Iterations 6
time step continuity errors : sum local = 0.00221891, global = -2.11504e-18, cumulative = 9.6569e-18
Pressure gradient source: uncorrected Ubar = 0.991642, pressure gradient = 0.0240483
smoothSolver:  Solving for omega, Initial residual = 0.0113283, Final residual = 0.000595763, No Iterations 2
smoothSolver:  Solving for k, Initial residual = 0.187077, Final residual = 0.0118779, No Iterations 2
ExecutionTime = 0.017021 s  ClockTime = 0 s

Time = 4s

smoothSolver:  Solving for Ux, Initial residual = 0.0787629, Final residual = 0.006485, No Iterations 4
smoothSolver:  Solving for Uy, Initial residual = 0.466736, Final residual = 0.0256247, No Iterations 3
Pressure gradient source: uncorrected Ubar = 1.00521, pressure gradient = -0.0310498
GAMG:  Solving for p, Initial residual = 0.0401224, Final residual = 0.0026505, No Iterations 14
time step continuity errors : sum local = 0.00109877, global = -1.79986e-17, cumulative = -8.34168e-18
Pressure gradient source: uncorrected Ubar = 1.00078, pressure gradient = 0.0158249
smoothSolver:  Solving for omega, Initial residual = 0.00623041, Final residual = 0.000302624, No Iterations 2
smoothSolver:  Solving for k, Initial residual = 0.0926314, Final residual = 0.00520519, No Iterations 3
ExecutionTime = 0.01932 s  ClockTime = 0 s

Time = 5s

smoothSolver:  Solving for Ux, Initial residual = 0.045962, Final residual = 0.00325296, No Iterations 5
smoothSolver:  Solving for Uy, Initial residual = 0.502015, Final residual = 0.0307785, No Iterations 3
Pressure gradient source: uncorrected Ubar = 1.0017, pressure gradient = -0.00374865
GAMG:  Solving for p, Initial residual = 0.071343, Final residual = 0.00520961, No Iterations 7
time step continuity errors : sum local = 0.000954334, global = 1.16179e-17, cumulative = 3.27623e-18
Pressure gradient source: uncorrected Ubar = 1.00025, pressure gradient = 0.0129722
smoothSolver:  Solving for omega, Initial residual = 0.00320618, Final residual = 0.000178685, No Iterations 3
smoothSolver:  Solving for k, Initial residual = 0.0753765, Final residual = 0.00412059, No Iterations 4
ExecutionTime = 0.021533 s  ClockTime = 0 s

Time = 6s

smoothSolver:  Solving for Ux, Initial residual = 0.0344188, Final residual = 0.00266515, No Iterations 5
smoothSolver:  Solving for Uy, Initial residual = 0.405087, Final residual = 0.0282882, No Iterations 3
Pressure gradient source: uncorrected Ubar = 1.00145, pressure gradient = -0.00468765
GAMG:  Solving for p, Initial residual = 0.146445, Final residual = 0.00918539, No Iterations 18
time step continuity errors : sum local = 0.000485505, global = 1.63477e-18, cumulative = 4.911e-18
Pressure gradient source: uncorrected Ubar = 1.00021, pressure gradient = 0.0104395
smoothSolver:  Solving for omega, Initial residual = 0.00193314, Final residual = 0.000124862, No Iterations 3
smoothSolver:  Solving for k, Initial residual = 0.063155, Final residual = 0.00361345, No Iterations 4
ExecutionTime = 0.024114 s  ClockTime = 0 s

Time = 7s

smoothSolver:  Solving for Ux, Initial residual = 0.0265777, Final residual = 0.00221731, No Iterations 5
smoothSolver:  Solving for Uy, Initial residual = 0.475032, Final residual = 0.0300111, No Iterations 3
Pressure gradient source: uncorrected Ubar = 1.00165, pressure gradient = -0.0104527
GAMG:  Solving for p, Initial residual = 0.0880466, Final residual = 0.00681384, No Iterations 16
time step continuity errors : sum local = 0.000389366, global = 4.03738e-18, cumulative = 8.94838e-18
Pressure gradient source: uncorrected Ubar = 1.00023, pressure gradient = 0.00753723
smoothSolver:  Solving for omega, Initial residual = 0.00128487, Final residual = 0.000108199, No Iterations 3
smoothSolver:  Solving for k, Initial residual = 0.0590994, Final residual = 0.00368336, No Iterations 5
ExecutionTime = 0.02702 s  ClockTime = 0 s

Time = 8s

smoothSolver:  Solving for Ux, Initial residual = 0.0206811, Final residual = 0.00188454, No Iterations 5
smoothSolver:  Solving for Uy, Initial residual = 0.486654, Final residual = 0.0301338, No Iterations 3
Pressure gradient source: uncorrected Ubar = 1.00118, pressure gradient = -0.00798412
GAMG:  Solving for p, Initial residual = 0.0444588, Final residual = 0.00295089, No Iterations 6
time step continuity errors : sum local = 0.000258501, global = -8.19589e-18, cumulative = 7.52491e-19
Pressure gradient source: uncorrected Ubar = 1.00016, pressure gradient = 0.00542839
smoothSolver:  Solving for omega, Initial residual = 0.000902961, Final residual = 8.51183e-05, No Iterations 3
smoothSolver:  Solving for k, Initial residual = 0.0500041, Final residual = 0.00377539, No Iterations 5
ExecutionTime = 0.029239 s  ClockTime = 0 s

Time = 9s

smoothSolver:  Solving for Ux, Initial residual = 0.0169393, Final residual = 0.00164503, No Iterations 5
smoothSolver:  Solving for Uy, Initial residual = 0.470668, Final residual = 0.0324447, No Iterations 3
Pressure gradient source: uncorrected Ubar = 1.00057, pressure gradient = -0.00231159
GAMG:  Solving for p, Initial residual = 0.0323427, Final residual = 0.00253168, No Iterations 9
time step continuity errors : sum local = 0.000253288, global = -4.37069e-18, cumulative = -3.6182e-18
Pressure gradient source: uncorrected Ubar = 1.00007, pressure gradient = 0.00441736
smoothSolver:  Solving for omega, Initial residual = 0.000704642, Final residual = 5.4754e-05, No Iterations 4
smoothSolver:  Solving for k, Initial residual = 0.0436249, Final residual = 0.003712, No Iterations 4
ExecutionTime = 0.031475 s  ClockTime = 0 s

Time = 10s

smoothSolver:  Solving for Ux, Initial residual = 0.0143802, Final residual = 0.000977839, No Iterations 6
smoothSolver:  Solving for Uy, Initial residual = 0.529294, Final residual = 0.0352532, No Iterations 3
Pressure gradient source: uncorrected Ubar = 1.00052, pressure gradient = -0.0029678
GAMG:  Solving for p, Initial residual = 0.0286918, Final residual = 0.00245636, No Iterations 16
time step continuity errors : sum local = 0.000245257, global = -1.56799e-17, cumulative = -1.9298e-17
Pressure gradient source: uncorrected Ubar = 1.00007, pressure gradient = 0.00346193
smoothSolver:  Solving for omega, Initial residual = 0.000521041, Final residual = 3.09292e-05, No Iterations 4
smoothSolver:  Solving for k, Initial residual = 0.0398652, Final residual = 0.00240238, No Iterations 5
ExecutionTime = 0.033901 s  ClockTime = 0 s

Time = 11s

smoothSolver:  Solving for Ux, Initial residual = 0.0125315, Final residual = 0.00090938, No Iterations 6
smoothSolver:  Solving for Uy, Initial residual = 0.515035, Final residual = 0.0368721, No Iterations 3
Pressure gradient source: uncorrected Ubar = 1.00038, pressure gradient = -0.00213496
GAMG:  Solving for p, Initial residual = 0.0310961, Final residual = 0.00216802, No Iterations 14
time step continuity errors : sum local = 0.000163712, global = -2.8833e-18, cumulative = -2.21813e-17
Pressure gradient source: uncorrected Ubar = 1.00005, pressure gradient = 0.00274196
smoothSolver:  Solving for omega, Initial residual = 0.000440215, Final residual = 3.11469e-05, No Iterations 5
smoothSolver:  Solving for k, Initial residual = 0.0394799, Final residual = 0.00297897, No Iterations 5
ExecutionTime = 0.036367 s  ClockTime = 0 s

Time = 12s

smoothSolver:  Solving for Ux, Initial residual = 0.0111545, Final residual = 0.000854176, No Iterations 6
smoothSolver:  Solving for Uy, Initial residual = 0.455225, Final residual = 0.0318058, No Iterations 3
Pressure gradient source: uncorrected Ubar = 1.00028, pressure gradient = -0.00154268
GAMG:  Solving for p, Initial residual = 0.0402135, Final residual = 0.00299778, No Iterations 14
time step continuity errors : sum local = 0.000141463, global = 5.02291e-18, cumulative = -1.71584e-17
Pressure gradient source: uncorrected Ubar = 1.00004, pressure gradient = 0.00218933
smoothSolver:  Solving for omega, Initial residual = 0.000331328, Final residual = 2.48956e-05, No Iterations 5
smoothSolver:  Solving for k, Initial residual = 0.0344189, Final residual = 0.00205742, No Iterations 5
ExecutionTime = 0.038805 s  ClockTime = 0 s

Time = 13s

smoothSolver:  Solving for Ux, Initial residual = 0.0100186, Final residual = 0.000801441, No Iterations 6
smoothSolver:  Solving for Uy, Initial residual = 0.364837, Final residual = 0.029944, No Iterations 3
Pressure gradient source: uncorrected Ubar = 1.00017, pressure gradient = -0.000420952
GAMG:  Solving for p, Initial residual = 0.0586278, Final residual = 0.0049538, No Iterations 13
time step continuity errors : sum local = 0.000121988, global = 6.73496e-19, cumulative = -1.64849e-17
Pressure gradient source: uncorrected Ubar = 1.00002, pressure gradient = 0.00185847
smoothSolver:  Solving for omega, Initial residual = 0.00029043, Final residual = 2.00428e-05, No Iterations 5
smoothSolver:  Solving for k, Initial residual = 0.0292292, Final residual = 0.0016789, No Iterations 5
ExecutionTime = 0.041358 s  ClockTime = 0 s

Time = 14s

smoothSolver:  Solving for Ux, Initial residual = 0.00912025, Final residual = 0.000755034, No Iterations 6
smoothSolver:  Solving for Uy, Initial residual = 0.356569, Final residual = 0.025623, No Iterations 3
Pressure gradient source: uncorrected Ubar = 1.00013, pressure gradient = -0.000176817
GAMG:  Solving for p, Initial residual = 0.0963103, Final residual = 0.00929725, No Iterations 9
time step continuity errors : sum local = 0.000100768, global = 6.21322e-19, cumulative = -1.58636e-17
Pressure gradient source: uncorrected Ubar = 1.00002, pressure gradient = 0.00159687
smoothSolver:  Solving for omega, Initial residual = 0.000229231, Final residual = 1.69811e-05, No Iterations 5
smoothSolver:  Solving for k, Initial residual = 0.0260345, Final residual = 0.00204613, No Iterations 5
ExecutionTime = 0.043689 s  ClockTime = 0 s

Time = 15s

smoothSolver:  Solving for Ux, Initial residual = 0.00842938, Final residual = 0.000723545, No Iterations 6
smoothSolver:  Solving for Uy, Initial residual = 0.41199, Final residual = 0.0333553, No Iterations 3
Pressure gradient source: uncorrected Ubar = 1.00008, pressure gradient = 0.000311685
GAMG:  Solving for p, Initial residual = 0.0405671, Final residual = 0.00367536, No Iterations 9
time step continuity errors : sum local = 6.54566e-05, global = -2.82253e-18, cumulative = -1.86862e-17
Pressure gradient source: uncorrected Ubar = 1.00001, pressure gradient = 0.00143168
smoothSolver:  Solving for omega, Initial residual = 0.00020919, Final residual = 2.03906e-05, No Iterations 4
smoothSolver:  Solving for k, Initial residual = 0.0225716, Final residual = 0.00162874, No Iterations 5
ExecutionTime = 0.045927 s  ClockTime = 0 s

Time = 16s

smoothSolver:  Solving for Ux, Initial residual = 0.00801233, Final residual = 0.000700779, No Iterations 6
smoothSolver:  Solving for Uy, Initial residual = 0.439496, Final residual = 0.0209836, No Iterations 4
Pressure gradient source: uncorrected Ubar = 1.00004, pressure gradient = 0.000667499
GAMG:  Solving for p, Initial residual = 0.0285939, Final residual = 0.00285682, No Iterations 4
time step continuity errors : sum local = 5.5457e-05, global = -1.64875e-18, cumulative = -2.03349e-17
Pressure gradient source: uncorrected Ubar = 1.00001, pressure gradient = 0.0013363
smoothSolver:  Solving for omega, Initial residual = 0.000191518, Final residual = 1.40453e-05, No Iterations 5
smoothSolver:  Solving for k, Initial residual = 0.0202127, Final residual = 0.00125408, No Iterations 5
ExecutionTime = 0.04802 s  ClockTime = 0 s

Time = 17s

smoothSolver:  Solving for Ux, Initial residual = 0.0078646, Final residual = 0.000678368, No Iterations 6
smoothSolver:  Solving for Uy, Initial residual = 0.460826, Final residual = 0.0447442, No Iterations 3
Pressure gradient source: uncorrected Ubar = 1.00004, pressure gradient = 0.000601857
GAMG:  Solving for p, Initial residual = 0.0299474, Final residual = 0.00250745, No Iterations 9
time step continuity errors : sum local = 4.57063e-05, global = 2.90021e-18, cumulative = -1.74347e-17
Pressure gradient source: uncorrected Ubar = 1.00001, pressure gradient = 0.00124233
smoothSolver:  Solving for omega, Initial residual = 0.000181409, Final residual = 1.42845e-05, No Iterations 5
smoothSolver:  Solving for k, Initial residual = 0.0190337, Final residual = 0.00132228, No Iterations 5
ExecutionTime = 0.050216 s  ClockTime = 0 s

Time = 18s

smoothSolver:  Solving for Ux, Initial residual = 0.00774955, Final residual = 0.000658088, No Iterations 6
smoothSolver:  Solving for Uy, Initial residual = 0.493003, Final residual = 0.0376918, No Iterations 3
Pressure gradient source: uncorrected Ubar = 1.00003, pressure gradient = 0.000765119
GAMG:  Solving for p, Initial residual = 0.0331875, Final residual = 0.00330897, No Iterations 10
time step continuity errors : sum local = 4.719e-05, global = -9.95243e-18, cumulative = -2.73871e-17
Pressure gradient source: uncorrected Ubar = 1, pressure gradient = 0.0011824
smoothSolver:  Solving for omega, Initial residual = 0.000160002, Final residual = 1.55973e-05, No Iterations 4
smoothSolver:  Solving for k, Initial residual = 0.016133, Final residual = 0.00111111, No Iterations 5
ExecutionTime = 0.052443 s  ClockTime = 0 s

Time = 19s

smoothSolver:  Solving for Ux, Initial residual = 0.00766152, Final residual = 0.000640417, No Iterations 6
smoothSolver:  Solving for Uy, Initial residual = 0.397805, Final residual = 0.033579, No Iterations 3
Pressure gradient source: uncorrected Ubar = 1.00001, pressure gradient = 0.00105914
GAMG:  Solving for p, Initial residual = 0.0380713, Final residual = 0.00371541, No Iterations 13
time step continuity errors : sum local = 4.14622e-05, global = -5.50909e-18, cumulative = -3.28962e-17
Pressure gradient source: uncorrected Ubar = 1, pressure gradient = 0.00117232
smoothSolver:  Solving for omega, Initial residual = 0.000160808, Final residual = 1.58372e-05, No Iterations 4
smoothSolver:  Solving for k, Initial residual = 0.0148131, Final residual = 0.00111567, No Iterations 5
ExecutionTime = 0.054763 s  ClockTime = 0 s

Time = 20s

smoothSolver:  Solving for Ux, Initial residual = 0.00758495, Final residual = 0.000626721, No Iterations 6
smoothSolver:  Solving for Uy, Initial residual = 0.328653, Final residual = 0.0277973, No Iterations 3
Pressure gradient source: uncorrected Ubar = 0.999993, pressure gradient = 0.00131114
GAMG:  Solving for p, Initial residual = 0.0414609, Final residual = 0.00385171, No Iterations 15
time step continuity errors : sum local = 3.03359e-05, global = 3.17129e-18, cumulative = -2.97249e-17
Pressure gradient source: uncorrected Ubar = 0.999999, pressure gradient = 0.00119905
smoothSolver:  Solving for omega, Initial residual = 0.000153257, Final residual = 1.02722e-05, No Iterations 5
smoothSolver:  Solving for k, Initial residual = 0.0137284, Final residual = 0.00096982, No Iterations 5
ExecutionTime = 0.057158 s  ClockTime = 0 s

Time = 21s

smoothSolver:  Solving for Ux, Initial residual = 0.0075006, Final residual = 0.000613092, No Iterations 6
smoothSolver:  Solving for Uy, Initial residual = 0.342023, Final residual = 0.0232841, No Iterations 3
Pressure gradient source: uncorrected Ubar = 0.999988, pressure gradient = 0.00142887
GAMG:  Solving for p, Initial residual = 0.0414812, Final residual = 0.00317082, No Iterations 15
time step continuity errors : sum local = 2.41716e-05, global = -2.58536e-18, cumulative = -3.23103e-17
Pressure gradient source: uncorrected Ubar = 0.999998, pressure gradient = 0.00123664
smoothSolver:  Solving for omega, Initial residual = 0.000154666, Final residual = 1.46134e-05, No Iterations 4
smoothSolver:  Solving for k, Initial residual = 0.0122355, Final residual = 0.000907704, No Iterations 5
ExecutionTime = 0.059534 s  ClockTime = 0 s

Time = 22s

smoothSolver:  Solving for Ux, Initial residual = 0.00741129, Final residual = 0.000598638, No Iterations 6
smoothSolver:  Solving for Uy, Initial residual = 0.395245, Final residual = 0.0374434, No Iterations 3
Pressure gradient source: uncorrected Ubar = 0.999979, pressure gradient = 0.00165075
GAMG:  Solving for p, Initial residual = 0.0373831, Final residual = 0.00355333, No Iterations 13
time step continuity errors : sum local = 2.29305e-05, global = -4.60034e-18, cumulative = -3.69106e-17
Pressure gradient source: uncorrected Ubar = 0.999997, pressure gradient = 0.00129847
smoothSolver:  Solving for omega, Initial residual = 0.000143631, Final residual = 1.30143e-05, No Iterations 4
smoothSolver:  Solving for k, Initial residual = 0.0117572, Final residual = 0.000899892, No Iterations 5
ExecutionTime = 0.061855 s  ClockTime = 0 s

Time = 23s

smoothSolver:  Solving for Ux, Initial residual = 0.0073128, Final residual = 0.00058505, No Iterations 6
smoothSolver:  Solving for Uy, Initial residual = 0.56788, Final residual = 0.0519527, No Iterations 3
Pressure gradient source: uncorrected Ubar = 0.999978, pressure gradient = 0.001753
GAMG:  Solving for p, Initial residual = 0.0354885, Final residual = 0.00305269, No Iterations 14
time step continuity errors : sum local = 1.79776e-05, global = -9.26406e-19, cumulative = -3.7837e-17
Pressure gradient source: uncorrected Ubar = 0.999997, pressure gradient = 0.0013637
smoothSolver:  Solving for omega, Initial residual = 0.000148228, Final residual = 9.52377e-06, No Iterations 5
smoothSolver:  Solving for k, Initial residual = 0.0108781, Final residual = 0.000808233, No Iterations 5
ExecutionTime = 0.064266 s  ClockTime = 0 s

Time = 24s

smoothSolver:  Solving for Ux, Initial residual = 0.00720332, Final residual = 0.000571526, No Iterations 6
smoothSolver:  Solving for Uy, Initial residual = 0.561896, Final residual = 0.046326, No Iterations 3
Pressure gradient source: uncorrected Ubar = 0.999977, pressure gradient = 0.00183165
GAMG:  Solving for p, Initial residual = 0.0303644, Final residual = 0.00284792, No Iterations 9
time step continuity errors : sum local = 1.57519e-05, global = -4.42385e-18, cumulative = -4.22609e-17
Pressure gradient source: uncorrected Ubar = 0.999997, pressure gradient = 0.00142814
smoothSolver:  Solving for omega, Initial residual = 0.00014348, Final residual = 9.53451e-06, No Iterations 5
smoothSolver:  Solving for k, Initial residual = 0.0102994, Final residual = 0.000797941, No Iterations 5
ExecutionTime = 0.066455 s  ClockTime = 0 s

Time = 25s

smoothSolver:  Solving for Ux, Initial residual = 0.00710703, Final residual = 0.00055885, No Iterations 6
smoothSolver:  Solving for Uy, Initial residual = 0.387129, Final residual = 0.0336756, No Iterations 3
Pressure gradient source: uncorrected Ubar = 0.999975, pressure gradient = 0.00196709
GAMG:  Solving for p, Initial residual = 0.025956, Final residual = 0.00247982, No Iterations 3
time step continuity errors : sum local = 1.22625e-05, global = -1.02442e-17, cumulative = -5.25051e-17
Pressure gradient source: uncorrected Ubar = 0.999997, pressure gradient = 0.00150006
smoothSolver:  Solving for omega, Initial residual = 0.000143879, Final residual = 9.45586e-06, No Iterations 5
smoothSolver:  Solving for k, Initial residual = 0.00939978, Final residual = 0.00071017, No Iterations 5
ExecutionTime = 0.068449 s  ClockTime = 0 s

Time = 26s

smoothSolver:  Solving for Ux, Initial residual = 0.0070079, Final residual = 0.000546276, No Iterations 6
smoothSolver:  Solving for Uy, Initial residual = 0.249254, Final residual = 0.0239602, No Iterations 3
Pressure gradient source: uncorrected Ubar = 0.999974, pressure gradient = 0.00205397
GAMG:  Solving for p, Initial residual = 0.022295, Final residual = 0.00170554, No Iterations 3
time step continuity errors : sum local = 8.06739e-06, global = 1.05774e-18, cumulative = -5.14474e-17
Pressure gradient source: uncorrected Ubar = 0.999997, pressure gradient = 0.00157129
smoothSolver:  Solving for omega, Initial residual = 0.000138974, Final residual = 1.11772e-05, No Iterations 4
smoothSolver:  Solving for k, Initial residual = 0.00905558, Final residual = 0.000691428, No Iterations 5
ExecutionTime = 0.070489 s  ClockTime = 0 s

Time = 27s

smoothSolver:  Solving for Ux, Initial residual = 0.00691886, Final residual = 0.00053526, No Iterations 6
smoothSolver:  Solving for Uy, Initial residual = 0.176416, Final residual = 0.0152218, No Iterations 3
Pressure gradient source: uncorrected Ubar = 0.99997, pressure gradient = 0.0022292
GAMG:  Solving for p, Initial residual = 0.0204766, Final residual = 0.00143398, No Iterations 9
time step continuity errors : sum local = 7.29888e-06, global = 1.49948e-17, cumulative = -3.64526e-17
Pressure gradient source: uncorrected Ubar = 0.999996, pressure gradient = 0.00165523
smoothSolver:  Solving for omega, Initial residual = 0.000141564, Final residual = 1.14797e-05, No Iterations 4
smoothSolver:  Solving for k, Initial residual = 0.00824922, Final residual = 0.000580102, No Iterations 5
ExecutionTime = 0.072842 s  ClockTime = 0 s

Time = 28s

smoothSolver:  Solving for Ux, Initial residual = 0.00681695, Final residual = 0.000523157, No Iterations 6
smoothSolver:  Solving for Uy, Initial residual = 0.155412, Final residual = 0.0137881, No Iterations 3
Pressure gradient source: uncorrected Ubar = 0.999976, pressure gradient = 0.00218565
GAMG:  Solving for p, Initial residual = 0.0246869, Final residual = 0.00197949, No Iterations 13
time step continuity errors : sum local = 7.76145e-06, global = 8.80438e-19, cumulative = -3.55721e-17
Pressure gradient source: uncorrected Ubar = 0.999997, pressure gradient = 0.0017174
smoothSolver:  Solving for omega, Initial residual = 0.000143727, Final residual = 9.43738e-06, No Iterations 5
smoothSolver:  Solving for k, Initial residual = 0.00818893, Final residual = 0.000670966, No Iterations 5
ExecutionTime = 0.075447 s  ClockTime = 0 s

Time = 29s

smoothSolver:  Solving for Ux, Initial residual = 0.00671473, Final residual = 0.000511668, No Iterations 6
smoothSolver:  Solving for Uy, Initial residual = 0.154858, Final residual = 0.0088723, No Iterations 4
Pressure gradient source: uncorrected Ubar = 0.999976, pressure gradient = 0.00226137
GAMG:  Solving for p, Initial residual = 0.0297326, Final residual = 0.00290378, No Iterations 13
time step continuity errors : sum local = 8.97641e-06, global = 3.70079e-18, cumulative = -3.18713e-17
Pressure gradient source: uncorrected Ubar = 0.999997, pressure gradient = 0.00177879
smoothSolver:  Solving for omega, Initial residual = 0.000140632, Final residual = 9.93726e-06, No Iterations 5
smoothSolver:  Solving for k, Initial residual = 0.00765308, Final residual = 0.000605953, No Iterations 5
ExecutionTime = 0.077777 s  ClockTime = 0 s

Time = 30s

smoothSolver:  Solving for Ux, Initial residual = 0.00661738, Final residual = 0.000500719, No Iterations 6
smoothSolver:  Solving for Uy, Initial residual = 0.169345, Final residual = 0.0152621, No Iterations 3
Pressure gradient source: uncorrected Ubar = 0.999977, pressure gradient = 0.00231894
GAMG:  Solving for p, Initial residual = 0.0403397, Final residual = 0.00321417, No Iterations 17
time step continuity errors : sum local = 5.98912e-06, global = 1.03304e-17, cumulative = -2.15409e-17
Pressure gradient source: uncorrected Ubar = 0.999997, pressure gradient = 0.00183698
smoothSolver:  Solving for omega, Initial residual = 0.000137218, Final residual = 8.5414e-06, No Iterations 5
smoothSolver:  Solving for k, Initial residual = 0.00725312, Final residual = 0.000591538, No Iterations 5
ExecutionTime = 0.080184 s  ClockTime = 0 s

Time = 31s

smoothSolver:  Solving for Ux, Initial residual = 0.00652736, Final residual = 0.000490272, No Iterations 6
smoothSolver:  Solving for Uy, Initial residual = 0.16658, Final residual = 0.0139882, No Iterations 3
Pressure gradient source: uncorrected Ubar = 0.999978, pressure gradient = 0.00235454
GAMG:  Solving for p, Initial residual = 0.0650262, Final residual = 0.00605641, No Iterations 16
time step continuity errors : sum local = 6.31012e-06, global = -7.82844e-21, cumulative = -2.15488e-17
Pressure gradient source: uncorrected Ubar = 0.999998, pressure gradient = 0.00188902
smoothSolver:  Solving for omega, Initial residual = 0.000134169, Final residual = 1.21915e-05, No Iterations 4
smoothSolver:  Solving for k, Initial residual = 0.00653014, Final residual = 0.000521816, No Iterations 5
ExecutionTime = 0.082554 s  ClockTime = 0 s

Time = 32s

smoothSolver:  Solving for Ux, Initial residual = 0.00644107, Final residual = 0.000480517, No Iterations 6
smoothSolver:  Solving for Uy, Initial residual = 0.140099, Final residual = 0.0131857, No Iterations 3
Pressure gradient source: uncorrected Ubar = 0.999978, pressure gradient = 0.00241941
GAMG:  Solving for p, Initial residual = 0.0355188, Final residual = 0.00312031, No Iterations 14
time step continuity errors : sum local = 4.28844e-06, global = 1.03309e-17, cumulative = -1.12178e-17
Pressure gradient source: uncorrected Ubar = 0.999998, pressure gradient = 0.00194066
smoothSolver:  Solving for omega, Initial residual = 0.00013398, Final residual = 8.41519e-06, No Iterations 5
smoothSolver:  Solving for k, Initial residual = 0.00607053, Final residual = 0.000474986, No Iterations 5
ExecutionTime = 0.084886 s  ClockTime = 0 s

Time = 33s

smoothSolver:  Solving for Ux, Initial residual = 0.00636789, Final residual = 0.000472426, No Iterations 6
smoothSolver:  Solving for Uy, Initial residual = 0.160124, Final residual = 0.0159713, No Iterations 3
Pressure gradient source: uncorrected Ubar = 0.999973, pressure gradient = 0.00258786
GAMG:  Solving for p, Initial residual = 0.0248773, Final residual = 0.00190025, No Iterations 11
time step continuity errors : sum local = 3.0437e-06, global = 4.18395e-18, cumulative = -7.03386e-18
Pressure gradient source: uncorrected Ubar = 0.999997, pressure gradient = 0.00200759
smoothSolver:  Solving for omega, Initial residual = 0.000131166, Final residual = 1.30924e-05, No Iterations 4
smoothSolver:  Solving for k, Initial residual = 0.00567441, Final residual = 0.000518624, No Iterations 5
ExecutionTime = 0.087157 s  ClockTime = 0 s

Time = 34s

smoothSolver:  Solving for Ux, Initial residual = 0.00628441, Final residual = 0.000463228, No Iterations 6
smoothSolver:  Solving for Uy, Initial residual = 0.164645, Final residual = 0.0136288, No Iterations 3
Pressure gradient source: uncorrected Ubar = 0.999981, pressure gradient = 0.00247261
GAMG:  Solving for p, Initial residual = 0.0216334, Final residual = 0.00201355, No Iterations 5
time step continuity errors : sum local = 3.51724e-06, global = -5.11073e-18, cumulative = -1.21446e-17
Pressure gradient source: uncorrected Ubar = 0.999998, pressure gradient = 0.00204485
smoothSolver:  Solving for omega, Initial residual = 0.000130098, Final residual = 8.63373e-06, No Iterations 5
smoothSolver:  Solving for k, Initial residual = 0.00537444, Final residual = 0.000508723, No Iterations 5
ExecutionTime = 0.089386 s  ClockTime = 0 s

Time = 35s

smoothSolver:  Solving for Ux, Initial residual = 0.00620637, Final residual = 0.000454711, No Iterations 6
smoothSolver:  Solving for Uy, Initial residual = 0.169943, Final residual = 0.0158526, No Iterations 3
Pressure gradient source: uncorrected Ubar = 0.999979, pressure gradient = 0.00256418
GAMG:  Solving for p, Initial residual = 0.0194811, Final residual = 0.00150998, No Iterations 3
time step continuity errors : sum local = 2.51018e-06, global = 3.14347e-18, cumulative = -9.00112e-18
Pressure gradient source: uncorrected Ubar = 0.999998, pressure gradient = 0.00208808
smoothSolver:  Solving for omega, Initial residual = 0.000127231, Final residual = 8.03121e-06, No Iterations 5
smoothSolver:  Solving for k, Initial residual = 0.00480043, Final residual = 0.000306029, No Iterations 5
ExecutionTime = 0.091619 s  ClockTime = 0 s

Time = 36s

smoothSolver:  Solving for Ux, Initial residual = 0.0061361, Final residual = 0.000447156, No Iterations 6
smoothSolver:  Solving for Uy, Initial residual = 0.147165, Final residual = 0.00892365, No Iterations 4
Pressure gradient source: uncorrected Ubar = 0.999979, pressure gradient = 0.00263314
GAMG:  Solving for p, Initial residual = 0.0178849, Final residual = 0.0017175, No Iterations 2
time step continuity errors : sum local = 2.61634e-06, global = -1.21188e-17, cumulative = -2.11199e-17
Pressure gradient source: uncorrected Ubar = 0.999998, pressure gradient = 0.00213322
smoothSolver:  Solving for omega, Initial residual = 0.000123255, Final residual = 1.1157e-05, No Iterations 4
smoothSolver:  Solving for k, Initial residual = 0.00464441, Final residual = 0.000398894, No Iterations 5
ExecutionTime = 0.093605 s  ClockTime = 0 s

Time = 37s

smoothSolver:  Solving for Ux, Initial residual = 0.00606682, Final residual = 0.000439698, No Iterations 6
smoothSolver:  Solving for Uy, Initial residual = 0.126236, Final residual = 0.00664398, No Iterations 4
Pressure gradient source: uncorrected Ubar = 0.999981, pressure gradient = 0.00261676
GAMG:  Solving for p, Initial residual = 0.0200017, Final residual = 0.00143056, No Iterations 3
time step continuity errors : sum local = 1.88484e-06, global = 2.10347e-18, cumulative = -1.90165e-17
Pressure gradient source: uncorrected Ubar = 0.999999, pressure gradient = 0.00216739
smoothSolver:  Solving for omega, Initial residual = 0.000122305, Final residual = 1.21294e-05, No Iterations 4
smoothSolver:  Solving for k, Initial residual = 0.00452733, Final residual = 0.000415551, No Iterations 5
ExecutionTime = 0.095586 s  ClockTime = 0 s

Time = 38s

smoothSolver:  Solving for Ux, Initial residual = 0.00600444, Final residual = 0.00043308, No Iterations 6
smoothSolver:  Solving for Uy, Initial residual = 0.0994011, Final residual = 0.00857788, No Iterations 3
Pressure gradient source: uncorrected Ubar = 0.999979, pressure gradient = 0.00271149
GAMG:  Solving for p, Initial residual = 0.0193294, Final residual = 0.00182393, No Iterations 5
time step continuity errors : sum local = 2.17202e-06, global = -1.58548e-18, cumulative = -2.06019e-17
Pressure gradient source: uncorrected Ubar = 0.999998, pressure gradient = 0.00220911
smoothSolver:  Solving for omega, Initial residual = 0.000121629, Final residual = 9.13693e-06, No Iterations 5
smoothSolver:  Solving for k, Initial residual = 0.00439118, Final residual = 0.000434019, No Iterations 5
ExecutionTime = 0.097599 s  ClockTime = 0 s

Time = 39s

smoothSolver:  Solving for Ux, Initial residual = 0.0059415, Final residual = 0.000426584, No Iterations 6
smoothSolver:  Solving for Uy, Initial residual = 0.0774824, Final residual = 0.00579702, No Iterations 3
Pressure gradient source: uncorrected Ubar = 0.999979, pressure gradient = 0.0027549
GAMG:  Solving for p, Initial residual = 0.0191427, Final residual = 0.00171453, No Iterations 7
time step continuity errors : sum local = 1.74939e-06, global = 7.0868e-18, cumulative = -1.35151e-17
Pressure gradient source: uncorrected Ubar = 0.999998, pressure gradient = 0.00224932
smoothSolver:  Solving for omega, Initial residual = 0.000116823, Final residual = 7.38866e-06, No Iterations 5
smoothSolver:  Solving for k, Initial residual = 0.00425796, Final residual = 0.000375695, No Iterations 5
ExecutionTime = 0.099729 s  ClockTime = 0 s

Time = 40s

smoothSolver:  Solving for Ux, Initial residual = 0.00588715, Final residual = 0.000420978, No Iterations 6
smoothSolver:  Solving for Uy, Initial residual = 0.0647736, Final residual = 0.00454526, No Iterations 3
Pressure gradient source: uncorrected Ubar = 0.999979, pressure gradient = 0.00281145
GAMG:  Solving for p, Initial residual = 0.022931, Final residual = 0.00225532, No Iterations 6
time step continuity errors : sum local = 2.04667e-06, global = -8.18564e-18, cumulative = -2.17008e-17
Pressure gradient source: uncorrected Ubar = 0.999998, pressure gradient = 0.00229054
smoothSolver:  Solving for omega, Initial residual = 0.000113262, Final residual = 9.6341e-06, No Iterations 4
smoothSolver:  Solving for k, Initial residual = 0.00406117, Final residual = 0.000260299, No Iterations 5
ExecutionTime = 0.101838 s  ClockTime = 0 s

Time = 41s

smoothSolver:  Solving for Ux, Initial residual = 0.00584025, Final residual = 0.000416314, No Iterations 6
smoothSolver:  Solving for Uy, Initial residual = 0.0583544, Final residual = 0.00440614, No Iterations 3
Pressure gradient source: uncorrected Ubar = 0.999978, pressure gradient = 0.00289475
GAMG:  Solving for p, Initial residual = 0.0259697, Final residual = 0.0024691, No Iterations 9
time step continuity errors : sum local = 1.74567e-06, global = -1.1574e-17, cumulative = -3.32748e-17
Pressure gradient source: uncorrected Ubar = 0.999998, pressure gradient = 0.00233707
smoothSolver:  Solving for omega, Initial residual = 0.000113489, Final residual = 7.97517e-06, No Iterations 5
smoothSolver:  Solving for k, Initial residual = 0.00408034, Final residual = 0.000324946, No Iterations 5
ExecutionTime = 0.10407 s  ClockTime = 0 s

Time = 42s

smoothSolver:  Solving for Ux, Initial residual = 0.00578969, Final residual = 0.000411329, No Iterations 6
smoothSolver:  Solving for Uy, Initial residual = 0.0429503, Final residual = 0.00245116, No Iterations 3
Pressure gradient source: uncorrected Ubar = 0.99998, pressure gradient = 0.00287201
GAMG:  Solving for p, Initial residual = 0.0266757, Final residual = 0.00263278, No Iterations 11
time step continuity errors : sum local = 1.72808e-06, global = -4.07819e-19, cumulative = -3.36826e-17
Pressure gradient source: uncorrected Ubar = 0.999999, pressure gradient = 0.00237178
smoothSolver:  Solving for omega, Initial residual = 0.00010992, Final residual = 7.10021e-06, No Iterations 5
smoothSolver:  Solving for k, Initial residual = 0.00412094, Final residual = 0.000349078, No Iterations 5
ExecutionTime = 0.106623 s  ClockTime = 0 s

Time = 43s

smoothSolver:  Solving for Ux, Initial residual = 0.00574559, Final residual = 0.00040717, No Iterations 6
smoothSolver:  Solving for Uy, Initial residual = 0.0361966, Final residual = 0.00342616, No Iterations 2
Pressure gradient source: uncorrected Ubar = 0.999979, pressure gradient = 0.00295423
GAMG:  Solving for p, Initial residual = 0.0243113, Final residual = 0.00236838, No Iterations 12
time step continuity errors : sum local = 1.39845e-06, global = -4.3759e-18, cumulative = -3.80585e-17
Pressure gradient source: uncorrected Ubar = 0.999999, pressure gradient = 0.00241268
smoothSolver:  Solving for omega, Initial residual = 0.000108473, Final residual = 8.0239e-06, No Iterations 5
smoothSolver:  Solving for k, Initial residual = 0.00404802, Final residual = 0.00030827, No Iterations 5
ExecutionTime = 0.108978 s  ClockTime = 0 s

Time = 44s

smoothSolver:  Solving for Ux, Initial residual = 0.00569825, Final residual = 0.000402398, No Iterations 6
smoothSolver:  Solving for Uy, Initial residual = 0.0376571, Final residual = 0.00231865, No Iterations 3
Pressure gradient source: uncorrected Ubar = 0.999982, pressure gradient = 0.00290474
GAMG:  Solving for p, Initial residual = 0.0282747, Final residual = 0.00282558, No Iterations 11
time step continuity errors : sum local = 1.43521e-06, global = -5.99943e-18, cumulative = -4.4058e-17
Pressure gradient source: uncorrected Ubar = 0.999999, pressure gradient = 0.0024386
smoothSolver:  Solving for omega, Initial residual = 0.000105455, Final residual = 7.90885e-06, No Iterations 5
smoothSolver:  Solving for k, Initial residual = 0.00406877, Final residual = 0.000329887, No Iterations 5
ExecutionTime = 0.111264 s  ClockTime = 0 s

Time = 45s

smoothSolver:  Solving for Ux, Initial residual = 0.00566106, Final residual = 0.000398701, No Iterations 6
smoothSolver:  Solving for Uy, Initial residual = 0.0371631, Final residual = 0.00250406, No Iterations 3
Pressure gradient source: uncorrected Ubar = 0.99998, pressure gradient = 0.00300538
GAMG:  Solving for p, Initial residual = 0.027392, Final residual = 0.00235819, No Iterations 12
time step continuity errors : sum local = 1.17805e-06, global = -9.4718e-19, cumulative = -4.50052e-17
Pressure gradient source: uncorrected Ubar = 0.999999, pressure gradient = 0.00247491
smoothSolver:  Solving for omega, Initial residual = 0.000102176, Final residual = 6.45562e-06, No Iterations 5
smoothSolver:  Solving for k, Initial residual = 0.00423733, Final residual = 0.000419631, No Iterations 5
ExecutionTime = 0.113484 s  ClockTime = 0 s

Time = 46s

smoothSolver:  Solving for Ux, Initial residual = 0.00561635, Final residual = 0.000394095, No Iterations 6
smoothSolver:  Solving for Uy, Initial residual = 0.0500676, Final residual = 0.00456587, No Iterations 3
Pressure gradient source: uncorrected Ubar = 0.999985, pressure gradient = 0.0029
GAMG:  Solving for p, Initial residual = 0.0373161, Final residual = 0.0037094, No Iterations 9
time step continuity errors : sum local = 1.54382e-06, global = -7.87484e-18, cumulative = -5.288e-17
Pressure gradient source: uncorrected Ubar = 1, pressure gradient = 0.00248862
smoothSolver:  Solving for omega, Initial residual = 9.94094e-05, Final residual = 9.12677e-06, No Iterations 4
smoothSolver:  Solving for k, Initial residual = 0.00423271, Final residual = 0.000353601, No Iterations 5
ExecutionTime = 0.115638 s  ClockTime = 0 s

Time = 47s

smoothSolver:  Solving for Ux, Initial residual = 0.00558246, Final residual = 0.00039067, No Iterations 6
smoothSolver:  Solving for Uy, Initial residual = 0.0501757, Final residual = 0.00330529, No Iterations 4
Pressure gradient source: uncorrected Ubar = 0.999982, pressure gradient = 0.00301556
GAMG:  Solving for p, Initial residual = 0.0289908, Final residual = 0.00289016, No Iterations 10
time step continuity errors : sum local = 1.10404e-06, global = -2.04098e-18, cumulative = -5.4921e-17
Pressure gradient source: uncorrected Ubar = 0.999999, pressure gradient = 0.00251728
smoothSolver:  Solving for omega, Initial residual = 9.88295e-05, Final residual = 6.26354e-06, No Iterations 5
smoothSolver:  Solving for k, Initial residual = 0.00441368, Final residual = 0.000382847, No Iterations 5
ExecutionTime = 0.118207 s  ClockTime = 0 s

Time = 48s

smoothSolver:  Solving for Ux, Initial residual = 0.00554489, Final residual = 0.000387059, No Iterations 6
smoothSolver:  Solving for Uy, Initial residual = 0.0526495, Final residual = 0.00328502, No Iterations 4
Pressure gradient source: uncorrected Ubar = 0.999982, pressure gradient = 0.00302759
GAMG:  Solving for p, Initial residual = 0.0290576, Final residual = 0.00284211, No Iterations 5
time step continuity errors : sum local = 1.16101e-06, global = -1.03526e-18, cumulative = -5.59562e-17
Pressure gradient source: uncorrected Ubar = 0.999999, pressure gradient = 0.00254259
smoothSolver:  Solving for omega, Initial residual = 9.75471e-05, Final residual = 7.24364e-06, No Iterations 5
smoothSolver:  Solving for k, Initial residual = 0.00458921, Final residual = 0.000444827, No Iterations 5
ExecutionTime = 0.120372 s  ClockTime = 0 s

Time = 49s

smoothSolver:  Solving for Ux, Initial residual = 0.00550625, Final residual = 0.000383309, No Iterations 6
smoothSolver:  Solving for Uy, Initial residual = 0.055057, Final residual = 0.00399862, No Iterations 4
Pressure gradient source: uncorrected Ubar = 0.999984, pressure gradient = 0.00301438
GAMG:  Solving for p, Initial residual = 0.0230492, Final residual = 0.00224022, No Iterations 10
time step continuity errors : sum local = 8.62182e-07, global = -7.06753e-19, cumulative = -5.6663e-17
Pressure gradient source: uncorrected Ubar = 0.999999, pressure gradient = 0.0025614
smoothSolver:  Solving for omega, Initial residual = 9.48097e-05, Final residual = 6.56292e-06, No Iterations 5
smoothSolver:  Solving for k, Initial residual = 0.00447655, Final residual = 0.000378814, No Iterations 5
ExecutionTime = 0.122744 s  ClockTime = 0 s

Time = 50s

smoothSolver:  Solving for Ux, Initial residual = 0.00547455, Final residual = 0.00038016, No Iterations 6
smoothSolver:  Solving for Uy, Initial residual = 0.0656493, Final residual = 0.00425897, No Iterations 4
Pressure gradient source: uncorrected Ubar = 0.999983, pressure gradient = 0.00305112
GAMG:  Solving for p, Initial residual = 0.0210904, Final residual = 0.00200639, No Iterations 11
time step continuity errors : sum local = 9.39752e-07, global = 1.28642e-17, cumulative = -4.37988e-17
Pressure gradient source: uncorrected Ubar = 0.999999, pressure gradient = 0.00258228
smoothSolver:  Solving for omega, Initial residual = 9.19878e-05, Final residual = 9.93935e-06, No Iterations 4
smoothSolver:  Solving for k, Initial residual = 0.00466365, Final residual = 0.000452477, No Iterations 5
ExecutionTime = 0.12536 s  ClockTime = 0 s

Time = 51s

smoothSolver:  Solving for Ux, Initial residual = 0.00544593, Final residual = 0.000377677, No Iterations 6
smoothSolver:  Solving for Uy, Initial residual = 0.0489601, Final residual = 0.00451869, No Iterations 3
Pressure gradient source: uncorrected Ubar = 0.999982, pressure gradient = 0.00310246
GAMG:  Solving for p, Initial residual = 0.0216582, Final residual = 0.00200724, No Iterations 12
time step continuity errors : sum local = 8.90111e-07, global = 3.74833e-18, cumulative = -4.00505e-17
Pressure gradient source: uncorrected Ubar = 0.999999, pressure gradient = 0.00260743
smoothSolver:  Solving for omega, Initial residual = 8.97961e-05, Final residual = 8.70644e-06, No Iterations 4
smoothSolver:  Solving for k, Initial residual = 0.00498588, Final residual = 0.000335074, No Iterations 6
ExecutionTime = 0.127721 s  ClockTime = 0 s

Time = 52s

smoothSolver:  Solving for Ux, Initial residual = 0.00541324, Final residual = 0.000374657, No Iterations 6
smoothSolver:  Solving for Uy, Initial residual = 0.0474885, Final residual = 0.00270006, No Iterations 4
Pressure gradient source: uncorrected Ubar = 0.999984, pressure gradient = 0.00307079
GAMG:  Solving for p, Initial residual = 0.0182883, Final residual = 0.00169909, No Iterations 11
time step continuity errors : sum local = 8.02565e-07, global = 1.70504e-18, cumulative = -3.83455e-17
Pressure gradient source: uncorrected Ubar = 0.999999, pressure gradient = 0.00262334
smoothSolver:  Solving for omega, Initial residual = 9.03867e-05, Final residual = 6.78429e-06, No Iterations 5
smoothSolver:  Solving for k, Initial residual = 0.00514669, Final residual = 0.00039998, No Iterations 6
ExecutionTime = 0.129967 s  ClockTime = 0 s

Time = 53s

smoothSolver:  Solving for Ux, Initial residual = 0.00537755, Final residual = 0.000371112, No Iterations 6
smoothSolver:  Solving for Uy, Initial residual = 0.0349203, Final residual = 0.00196741, No Iterations 4
Pressure gradient source: uncorrected Ubar = 0.999986, pressure gradient = 0.00303357
GAMG:  Solving for p, Initial residual = 0.0184388, Final residual = 0.00163032, No Iterations 11
time step continuity errors : sum local = 6.705e-07, global = -4.8356e-18, cumulative = -4.31811e-17
Pressure gradient source: uncorrected Ubar = 1, pressure gradient = 0.00263058
smoothSolver:  Solving for omega, Initial residual = 8.73382e-05, Final residual = 6.54439e-06, No Iterations 5
smoothSolver:  Solving for k, Initial residual = 0.00493676, Final residual = 0.000493514, No Iterations 5
ExecutionTime = 0.132169 s  ClockTime = 0 s

Time = 54s

smoothSolver:  Solving for Ux, Initial residual = 0.00535238, Final residual = 0.000368578, No Iterations 6
smoothSolver:  Solving for Uy, Initial residual = 0.0430984, Final residual = 0.00280284, No Iterations 4
Pressure gradient source: uncorrected Ubar = 0.999984, pressure gradient = 0.00311079
GAMG:  Solving for p, Initial residual = 0.0237043, Final residual = 0.00198515, No Iterations 9
time step continuity errors : sum local = 9.20752e-07, global = -2.06006e-18, cumulative = -4.52411e-17
Pressure gradient source: uncorrected Ubar = 0.999999, pressure gradient = 0.00264828
smoothSolver:  Solving for omega, Initial residual = 8.48366e-05, Final residual = 9.09434e-06, No Iterations 4
smoothSolver:  Solving for k, Initial residual = 0.00493822, Final residual = 0.000409862, No Iterations 5
ExecutionTime = 0.134375 s  ClockTime = 0 s

Time = 55s

smoothSolver:  Solving for Ux, Initial residual = 0.00533015, Final residual = 0.0003665, No Iterations 6
smoothSolver:  Solving for Uy, Initial residual = 0.0584329, Final residual = 0.00391665, No Iterations 4
Pressure gradient source: uncorrected Ubar = 0.999983, pressure gradient = 0.00315249
GAMG:  Solving for p, Initial residual = 0.0300416, Final residual = 0.00235692, No Iterations 4
time step continuity errors : sum local = 8.76504e-07, global = 6.86328e-19, cumulative = -4.45548e-17
Pressure gradient source: uncorrected Ubar = 0.999999, pressure gradient = 0.00266949
smoothSolver:  Solving for omega, Initial residual = 8.332e-05, Final residual = 8.7317e-06, No Iterations 4
smoothSolver:  Solving for k, Initial residual = 0.0053915, Final residual = 0.000360034, No Iterations 6
ExecutionTime = 0.136576 s  ClockTime = 0 s

Time = 56s

smoothSolver:  Solving for Ux, Initial residual = 0.00529903, Final residual = 0.000363593, No Iterations 6
smoothSolver:  Solving for Uy, Initial residual = 0.0314094, Final residual = 0.00241521, No Iterations 4
Pressure gradient source: uncorrected Ubar = 0.999986, pressure gradient = 0.00309998
GAMG:  Solving for p, Initial residual = 0.0158842, Final residual = 0.0015118, No Iterations 15
time step continuity errors : sum local = 7.40877e-07, global = -7.68854e-18, cumulative = -5.22433e-17
Pressure gradient source: uncorrected Ubar = 1, pressure gradient = 0.00267914
smoothSolver:  Solving for omega, Initial residual = 8.34759e-05, Final residual = 6.46616e-06, No Iterations 5
smoothSolver:  Solving for k, Initial residual = 0.00545668, Final residual = 0.000362204, No Iterations 6
ExecutionTime = 0.138978 s  ClockTime = 0 s

Time = 57s

smoothSolver:  Solving for Ux, Initial residual = 0.00526645, Final residual = 0.000360637, No Iterations 6
smoothSolver:  Solving for Uy, Initial residual = 0.0305985, Final residual = 0.0026432, No Iterations 3
Pressure gradient source: uncorrected Ubar = 0.999986, pressure gradient = 0.00311694
GAMG:  Solving for p, Initial residual = 0.0185529, Final residual = 0.00182905, No Iterations 9
time step continuity errors : sum local = 7.66815e-07, global = -1.63253e-18, cumulative = -5.38759e-17
Pressure gradient source: uncorrected Ubar = 1, pressure gradient = 0.00268958
smoothSolver:  Solving for omega, Initial residual = 8.11007e-05, Final residual = 6.50635e-06, No Iterations 5
smoothSolver:  Solving for k, Initial residual = 0.0055469, Final residual = 0.000382636, No Iterations 6
ExecutionTime = 0.141502 s  ClockTime = 0 s

Time = 58s

smoothSolver:  Solving for Ux, Initial residual = 0.00523732, Final residual = 0.000357992, No Iterations 6
smoothSolver:  Solving for Uy, Initial residual = 0.0358171, Final residual = 0.00203003, No Iterations 4
Pressure gradient source: uncorrected Ubar = 0.999986, pressure gradient = 0.00311789
GAMG:  Solving for p, Initial residual = 0.0180083, Final residual = 0.00149078, No Iterations 11
time step continuity errors : sum local = 6.11843e-07, global = 1.82152e-18, cumulative = -5.20544e-17
Pressure gradient source: uncorrected Ubar = 1, pressure gradient = 0.00269819
smoothSolver:  Solving for omega, Initial residual = 7.95657e-05, Final residual = 9.68106e-06, No Iterations 4
smoothSolver:  Solving for k, Initial residual = 0.00548034, Final residual = 0.00047745, No Iterations 5
ExecutionTime = 0.143803 s  ClockTime = 0 s

Time = 59s

smoothSolver:  Solving for Ux, Initial residual = 0.00521174, Final residual = 0.000355428, No Iterations 6
smoothSolver:  Solving for Uy, Initial residual = 0.0308804, Final residual = 0.00183638, No Iterations 4
Pressure gradient source: uncorrected Ubar = 0.999987, pressure gradient = 0.00309931
GAMG:  Solving for p, Initial residual = 0.0181918, Final residual = 0.00147129, No Iterations 9
time step continuity errors : sum local = 5.34955e-07, global = -3.03446e-18, cumulative = -5.50888e-17
Pressure gradient source: uncorrected Ubar = 1, pressure gradient = 0.00270248
smoothSolver:  Solving for omega, Initial residual = 7.69337e-05, Final residual = 8.20122e-06, No Iterations 4
smoothSolver:  Solving for k, Initial residual = 0.00585502, Final residual = 0.000379105, No Iterations 6
ExecutionTime = 0.145924 s  ClockTime = 0 s

Time = 60s

smoothSolver:  Solving for Ux, Initial residual = 0.00518529, Final residual = 0.000352825, No Iterations 6
smoothSolver:  Solving for Uy, Initial residual = 0.0609574, Final residual = 0.00437852, No Iterations 4
Pressure gradient source: uncorrected Ubar = 0.999986, pressure gradient = 0.00312706
GAMG:  Solving for p, Initial residual = 0.0404188, Final residual = 0.0035378, No Iterations 4
time step continuity errors : sum local = 1.13361e-06, global = -8.01697e-19, cumulative = -5.58905e-17
Pressure gradient source: uncorrected Ubar = 1, pressure gradient = 0.00271039
smoothSolver:  Solving for omega, Initial residual = 7.55865e-05, Final residual = 7.82349e-06, No Iterations 4
smoothSolver:  Solving for k, Initial residual = 0.00600396, Final residual = 0.000385131, No Iterations 6
ExecutionTime = 0.147895 s  ClockTime = 0 s

Time = 61s

smoothSolver:  Solving for Ux, Initial residual = 0.00516244, Final residual = 0.000350613, No Iterations 6
smoothSolver:  Solving for Uy, Initial residual = 0.0537673, Final residual = 0.00342898, No Iterations 4
Pressure gradient source: uncorrected Ubar = 0.999986, pressure gradient = 0.00314847
GAMG:  Solving for p, Initial residual = 0.0209808, Final residual = 0.00198598, No Iterations 11
time step continuity errors : sum local = 8.16732e-07, global = 3.06717e-19, cumulative = -5.55838e-17
Pressure gradient source: uncorrected Ubar = 1, pressure gradient = 0.00272042
smoothSolver:  Solving for omega, Initial residual = 7.48415e-05, Final residual = 8.5003e-06, No Iterations 4
smoothSolver:  Solving for k, Initial residual = 0.00611152, Final residual = 0.000413075, No Iterations 6
ExecutionTime = 0.150052 s  ClockTime = 0 s

Time = 62s

smoothSolver:  Solving for Ux, Initial residual = 0.00513747, Final residual = 0.000348322, No Iterations 6
smoothSolver:  Solving for Uy, Initial residual = 0.0672754, Final residual = 0.00420716, No Iterations 4
Pressure gradient source: uncorrected Ubar = 0.999986, pressure gradient = 0.00316285
GAMG:  Solving for p, Initial residual = 0.0311375, Final residual = 0.00283765, No Iterations 13
time step continuity errors : sum local = 1.31569e-06, global = 5.19163e-18, cumulative = -5.03922e-17
Pressure gradient source: uncorrected Ubar = 1, pressure gradient = 0.0027312
smoothSolver:  Solving for omega, Initial residual = 7.42946e-05, Final residual = 9.38814e-06, No Iterations 4
smoothSolver:  Solving for k, Initial residual = 0.00619246, Final residual = 0.000588736, No Iterations 5
ExecutionTime = 0.152493 s  ClockTime = 0 s

Time = 63s

smoothSolver:  Solving for Ux, Initial residual = 0.00511263, Final residual = 0.000345999, No Iterations 6
smoothSolver:  Solving for Uy, Initial residual = 0.0293811, Final residual = 0.00160643, No Iterations 4
Pressure gradient source: uncorrected Ubar = 0.999986, pressure gradient = 0.00316351
GAMG:  Solving for p, Initial residual = 0.0196081, Final residual = 0.00182499, No Iterations 15
time step continuity errors : sum local = 6.9481e-07, global = -5.7908e-18, cumulative = -5.6183e-17
Pressure gradient source: uncorrected Ubar = 1, pressure gradient = 0.0027405
smoothSolver:  Solving for omega, Initial residual = 7.29713e-05, Final residual = 9.73409e-06, No Iterations 4
smoothSolver:  Solving for k, Initial residual = 0.00631064, Final residual = 0.000626413, No Iterations 5
ExecutionTime = 0.154925 s  ClockTime = 0 s

Time = 64s

smoothSolver:  Solving for Ux, Initial residual = 0.00508305, Final residual = 0.000343398, No Iterations 6
smoothSolver:  Solving for Uy, Initial residual = 0.0293487, Final residual = 0.0016841, No Iterations 4
Pressure gradient source: uncorrected Ubar = 0.999987, pressure gradient = 0.00315217
GAMG:  Solving for p, Initial residual = 0.0243089, Final residual = 0.00234639, No Iterations 8
time step continuity errors : sum local = 6.24828e-07, global = -1.00584e-17, cumulative = -6.62413e-17
Pressure gradient source: uncorrected Ubar = 1, pressure gradient = 0.00274665
smoothSolver:  Solving for omega, Initial residual = 7.06848e-05, Final residual = 7.92124e-06, No Iterations 4
smoothSolver:  Solving for k, Initial residual = 0.00646624, Final residual = 0.00063397, No Iterations 5
ExecutionTime = 0.157522 s  ClockTime = 0 s

Time = 65s

smoothSolver:  Solving for Ux, Initial residual = 0.0050609, Final residual = 0.000341257, No Iterations 6
smoothSolver:  Solving for Uy, Initial residual = 0.0513408, Final residual = 0.00347117, No Iterations 4
Pressure gradient source: uncorrected Ubar = 0.999986, pressure gradient = 0.00319913
GAMG:  Solving for p, Initial residual = 0.0326519, Final residual = 0.00255863, No Iterations 4
time step continuity errors : sum local = 6.06373e-07, global = 2.33509e-18, cumulative = -6.39062e-17
Pressure gradient source: uncorrected Ubar = 1, pressure gradient = 0.00275925
smoothSolver:  Solving for omega, Initial residual = 6.90869e-05, Final residual = 6.80223e-06, No Iterations 4
smoothSolver:  Solving for k, Initial residual = 0.00667802, Final residual = 0.000656425, No Iterations 5
ExecutionTime = 0.159618 s  ClockTime = 0 s

Time = 66s

smoothSolver:  Solving for Ux, Initial residual = 0.00503985, Final residual = 0.000338932, No Iterations 6
smoothSolver:  Solving for Uy, Initial residual = 0.0475431, Final residual = 0.00307478, No Iterations 4
Pressure gradient source: uncorrected Ubar = 0.999987, pressure gradient = 0.00318489
GAMG:  Solving for p, Initial residual = 0.0313829, Final residual = 0.00298617, No Iterations 6
time step continuity errors : sum local = 7.92955e-07, global = 4.00905e-18, cumulative = -5.98972e-17
Pressure gradient source: uncorrected Ubar = 1, pressure gradient = 0.00276781
smoothSolver:  Solving for omega, Initial residual = 6.89364e-05, Final residual = 8.31943e-06, No Iterations 4
smoothSolver:  Solving for k, Initial residual = 0.0068852, Final residual = 0.000439763, No Iterations 6
ExecutionTime = 0.16173 s  ClockTime = 0 s

Time = 67s

smoothSolver:  Solving for Ux, Initial residual = 0.00500948, Final residual = 0.000336028, No Iterations 6
smoothSolver:  Solving for Uy, Initial residual = 0.0361693, Final residual = 0.00189051, No Iterations 4
Pressure gradient source: uncorrected Ubar = 0.999988, pressure gradient = 0.00315489
GAMG:  Solving for p, Initial residual = 0.021937, Final residual = 0.00199917, No Iterations 9
time step continuity errors : sum local = 5.62701e-07, global = -8.44346e-19, cumulative = -6.07415e-17
Pressure gradient source: uncorrected Ubar = 1, pressure gradient = 0.0027706
smoothSolver:  Solving for omega, Initial residual = 6.82402e-05, Final residual = 8.80706e-06, No Iterations 4
smoothSolver:  Solving for k, Initial residual = 0.00701783, Final residual = 0.000450936, No Iterations 6
ExecutionTime = 0.163886 s  ClockTime = 0 s

Time = 68s

smoothSolver:  Solving for Ux, Initial residual = 0.00498076, Final residual = 0.00033321, No Iterations 6
smoothSolver:  Solving for Uy, Initial residual = 0.042156, Final residual = 0.00310476, No Iterations 4
Pressure gradient source: uncorrected Ubar = 0.999988, pressure gradient = 0.00315755
GAMG:  Solving for p, Initial residual = 0.0189445, Final residual = 0.00170515, No Iterations 7
time step continuity errors : sum local = 4.90855e-07, global = -2.46856e-18, cumulative = -6.32101e-17
Pressure gradient source: uncorrected Ubar = 1, pressure gradient = 0.00277356
smoothSolver:  Solving for omega, Initial residual = 6.67868e-05, Final residual = 8.57438e-06, No Iterations 4
smoothSolver:  Solving for k, Initial residual = 0.0074111, Final residual = 0.000552256, No Iterations 6
ExecutionTime = 0.165962 s  ClockTime = 0 s

Time = 69s

smoothSolver:  Solving for Ux, Initial residual = 0.00494857, Final residual = 0.000330244, No Iterations 6
smoothSolver:  Solving for Uy, Initial residual = 0.0380022, Final residual = 0.00260235, No Iterations 4
Pressure gradient source: uncorrected Ubar = 0.999988, pressure gradient = 0.00316169
GAMG:  Solving for p, Initial residual = 0.0223465, Final residual = 0.00202955, No Iterations 3
time step continuity errors : sum local = 5.69761e-07, global = 1.04868e-18, cumulative = -6.21614e-17
Pressure gradient source: uncorrected Ubar = 1, pressure gradient = 0.00277695
smoothSolver:  Solving for omega, Initial residual = 6.47282e-05, Final residual = 7.01446e-06, No Iterations 4
smoothSolver:  Solving for k, Initial residual = 0.00733194, Final residual = 0.000713926, No Iterations 5
ExecutionTime = 0.167901 s  ClockTime = 0 s

Time = 70s

smoothSolver:  Solving for Ux, Initial residual = 0.0049229, Final residual = 0.000327642, No Iterations 6
smoothSolver:  Solving for Uy, Initial residual = 0.04736, Final residual = 0.00397187, No Iterations 4
Pressure gradient source: uncorrected Ubar = 0.999987, pressure gradient = 0.00320359
GAMG:  Solving for p, Initial residual = 0.0286714, Final residual = 0.00170604, No Iterations 3
time step continuity errors : sum local = 4.75934e-07, global = -6.96505e-18, cumulative = -6.91265e-17
Pressure gradient source: uncorrected Ubar = 1, pressure gradient = 0.00278657
smoothSolver:  Solving for omega, Initial residual = 6.35662e-05, Final residual = 6.76489e-06, No Iterations 4
smoothSolver:  Solving for k, Initial residual = 0.00762483, Final residual = 0.000523229, No Iterations 6
ExecutionTime = 0.169922 s  ClockTime = 0 s

Time = 71s

smoothSolver:  Solving for Ux, Initial residual = 0.00489356, Final residual = 0.000324674, No Iterations 6
smoothSolver:  Solving for Uy, Initial residual = 0.0585003, Final residual = 0.0043466, No Iterations 4
Pressure gradient source: uncorrected Ubar = 0.999988, pressure gradient = 0.00317706
GAMG:  Solving for p, Initial residual = 0.0206484, Final residual = 0.00183189, No Iterations 13
time step continuity errors : sum local = 5.9171e-07, global = 2.28443e-18, cumulative = -6.6842e-17
Pressure gradient source: uncorrected Ubar = 1, pressure gradient = 0.00279087
smoothSolver:  Solving for omega, Initial residual = 6.31388e-05, Final residual = 7.53795e-06, No Iterations 4
smoothSolver:  Solving for k, Initial residual = 0.00774076, Final residual = 0.000772635, No Iterations 5
ExecutionTime = 0.172284 s  ClockTime = 0 s

Time = 72s

smoothSolver:  Solving for Ux, Initial residual = 0.00486538, Final residual = 0.000321989, No Iterations 6
smoothSolver:  Solving for Uy, Initial residual = 0.0401557, Final residual = 0.00221557, No Iterations 4
Pressure gradient source: uncorrected Ubar = 0.999988, pressure gradient = 0.0031962
GAMG:  Solving for p, Initial residual = 0.0186462, Final residual = 0.00173607, No Iterations 13
time step continuity errors : sum local = 6.04446e-07, global = 7.22281e-18, cumulative = -5.96192e-17
Pressure gradient source: uncorrected Ubar = 1, pressure gradient = 0.00279782
smoothSolver:  Solving for omega, Initial residual = 6.21547e-05, Final residual = 8.19284e-06, No Iterations 4
smoothSolver:  Solving for k, Initial residual = 0.0080706, Final residual = 0.000571538, No Iterations 6
ExecutionTime = 0.174968 s  ClockTime = 0 s

Time = 73s

smoothSolver:  Solving for Ux, Initial residual = 0.00483064, Final residual = 0.000318847, No Iterations 6
smoothSolver:  Solving for Uy, Initial residual = 0.0394829, Final residual = 0.00235455, No Iterations 4
Pressure gradient source: uncorrected Ubar = 0.999988, pressure gradient = 0.00319032
GAMG:  Solving for p, Initial residual = 0.0234422, Final residual = 0.00232691, No Iterations 10
time step continuity errors : sum local = 7.30821e-07, global = -4.7226e-19, cumulative = -6.00915e-17
Pressure gradient source: uncorrected Ubar = 1, pressure gradient = 0.00280315
smoothSolver:  Solving for omega, Initial residual = 6.09904e-05, Final residual = 8.18298e-06, No Iterations 4
smoothSolver:  Solving for k, Initial residual = 0.00808126, Final residual = 0.000793716, No Iterations 5
ExecutionTime = 0.177217 s  ClockTime = 0 s

Time = 74s

smoothSolver:  Solving for Ux, Initial residual = 0.00480039, Final residual = 0.000478975, No Iterations 5
smoothSolver:  Solving for Uy, Initial residual = 0.0425578, Final residual = 0.00253562, No Iterations 4
Pressure gradient source: uncorrected Ubar = 0.99998, pressure gradient = 0.00345174
GAMG:  Solving for p, Initial residual = 0.0229441, Final residual = 0.00205465, No Iterations 4
time step continuity errors : sum local = 5.82111e-07, global = 3.11185e-18, cumulative = -5.69796e-17
Pressure gradient source: uncorrected Ubar = 0.999999, pressure gradient = 0.00283347
smoothSolver:  Solving for omega, Initial residual = 5.81793e-05, Final residual = 7.17908e-06, No Iterations 4
smoothSolver:  Solving for k, Initial residual = 0.00849626, Final residual = 0.000611888, No Iterations 6
ExecutionTime = 0.179269 s  ClockTime = 0 s

Time = 75s

smoothSolver:  Solving for Ux, Initial residual = 0.00476649, Final residual = 0.000474676, No Iterations 5
smoothSolver:  Solving for Uy, Initial residual = 0.0572026, Final residual = 0.00368456, No Iterations 4
Pressure gradient source: uncorrected Ubar = 0.999984, pressure gradient = 0.00337267
GAMG:  Solving for p, Initial residual = 0.0299525, Final residual = 0.00261765, No Iterations 6
time step continuity errors : sum local = 8.09474e-07, global = -5.20819e-18, cumulative = -6.21878e-17
Pressure gradient source: uncorrected Ubar = 1, pressure gradient = 0.00284657
smoothSolver:  Solving for omega, Initial residual = 5.75138e-05, Final residual = 6.33129e-06, No Iterations 4
smoothSolver:  Solving for k, Initial residual = 0.00850733, Final residual = 0.000564584, No Iterations 6
ExecutionTime = 0.181256 s  ClockTime = 0 s

Time = 76s

smoothSolver:  Solving for Ux, Initial residual = 0.00473264, Final residual = 0.000470213, No Iterations 5
smoothSolver:  Solving for Uy, Initial residual = 0.063232, Final residual = 0.00472408, No Iterations 4
Pressure gradient source: uncorrected Ubar = 0.999984, pressure gradient = 0.00336249
GAMG:  Solving for p, Initial residual = 0.0291155, Final residual = 0.00258259, No Iterations 4
time step continuity errors : sum local = 7.64388e-07, global = 7.21093e-18, cumulative = -5.49769e-17
Pressure gradient source: uncorrected Ubar = 1, pressure gradient = 0.00285645
smoothSolver:  Solving for omega, Initial residual = 5.6437e-05, Final residual = 7.0684e-06, No Iterations 4
smoothSolver:  Solving for k, Initial residual = 0.00877404, Final residual = 0.00059631, No Iterations 6
ExecutionTime = 0.183201 s  ClockTime = 0 s

Time = 77s

smoothSolver:  Solving for Ux, Initial residual = 0.00469597, Final residual = 0.000465602, No Iterations 5
smoothSolver:  Solving for Uy, Initial residual = 0.0622741, Final residual = 0.00491071, No Iterations 4
Pressure gradient source: uncorrected Ubar = 0.999985, pressure gradient = 0.00336233
GAMG:  Solving for p, Initial residual = 0.0216511, Final residual = 0.00178158, No Iterations 4
time step continuity errors : sum local = 5.97177e-07, global = -2.83714e-18, cumulative = -5.7814e-17
Pressure gradient source: uncorrected Ubar = 1, pressure gradient = 0.00286529
smoothSolver:  Solving for omega, Initial residual = 5.66163e-05, Final residual = 8.21074e-06, No Iterations 4
smoothSolver:  Solving for k, Initial residual = 0.00883235, Final residual = 0.000837295, No Iterations 5
ExecutionTime = 0.185129 s  ClockTime = 0 s

Time = 78s

smoothSolver:  Solving for Ux, Initial residual = 0.00465713, Final residual = 0.000460752, No Iterations 5
smoothSolver:  Solving for Uy, Initial residual = 0.051419, Final residual = 0.00438281, No Iterations 4
Pressure gradient source: uncorrected Ubar = 0.999985, pressure gradient = 0.00335469
GAMG:  Solving for p, Initial residual = 0.0182169, Final residual = 0.00142582, No Iterations 9
time step continuity errors : sum local = 4.86843e-07, global = 3.55457e-18, cumulative = -5.42594e-17
Pressure gradient source: uncorrected Ubar = 1, pressure gradient = 0.00287187
smoothSolver:  Solving for omega, Initial residual = 5.49312e-05, Final residual = 7.61253e-06, No Iterations 4
smoothSolver:  Solving for k, Initial residual = 0.00909138, Final residual = 0.000631067, No Iterations 6
ExecutionTime = 0.18735 s  ClockTime = 0 s

Time = 79s

smoothSolver:  Solving for Ux, Initial residual = 0.00461532, Final residual = 0.000454973, No Iterations 5
smoothSolver:  Solving for Uy, Initial residual = 0.0458551, Final residual = 0.00327019, No Iterations 4
Pressure gradient source: uncorrected Ubar = 0.999987, pressure gradient = 0.00330865
GAMG:  Solving for p, Initial residual = 0.0257228, Final residual = 0.00252256, No Iterations 6
time step continuity errors : sum local = 8.09312e-07, global = 5.82891e-19, cumulative = -5.36765e-17
Pressure gradient source: uncorrected Ubar = 1, pressure gradient = 0.00287052
smoothSolver:  Solving for omega, Initial residual = 5.30358e-05, Final residual = 9.7754e-06, No Iterations 3
smoothSolver:  Solving for k, Initial residual = 0.00921683, Final residual = 0.000889511, No Iterations 5
ExecutionTime = 0.189764 s  ClockTime = 0 s

Time = 80s

smoothSolver:  Solving for Ux, Initial residual = 0.00457714, Final residual = 0.000449289, No Iterations 5
smoothSolver:  Solving for Uy, Initial residual = 0.0357335, Final residual = 0.00256282, No Iterations 4
Pressure gradient source: uncorrected Ubar = 0.999985, pressure gradient = 0.00335428
GAMG:  Solving for p, Initial residual = 0.022754, Final residual = 0.00206169, No Iterations 9
time step continuity errors : sum local = 7.14402e-07, global = -1.04e-18, cumulative = -5.47166e-17
Pressure gradient source: uncorrected Ubar = 1, pressure gradient = 0.00287759
smoothSolver:  Solving for omega, Initial residual = 5.29273e-05, Final residual = 9.91091e-06, No Iterations 3
smoothSolver:  Solving for k, Initial residual = 0.0097478, Final residual = 0.000733934, No Iterations 6
ExecutionTime = 0.19203 s  ClockTime = 0 s

Time = 81s

smoothSolver:  Solving for Ux, Initial residual = 0.00452221, Final residual = 0.00044285, No Iterations 5
smoothSolver:  Solving for Uy, Initial residual = 0.0462181, Final residual = 0.00348572, No Iterations 4
Pressure gradient source: uncorrected Ubar = 0.999986, pressure gradient = 0.00334911
GAMG:  Solving for p, Initial residual = 0.0217288, Final residual = 0.00185837, No Iterations 4
time step continuity errors : sum local = 6.80606e-07, global = 4.42923e-18, cumulative = -5.02873e-17
Pressure gradient source: uncorrected Ubar = 1, pressure gradient = 0.00288355
smoothSolver:  Solving for omega, Initial residual = 5.26456e-05, Final residual = 6.51994e-06, No Iterations 4
smoothSolver:  Solving for k, Initial residual = 0.00990243, Final residual = 0.000697848, No Iterations 6
ExecutionTime = 0.194066 s  ClockTime = 0 s

Time = 82s

smoothSolver:  Solving for Ux, Initial residual = 0.00443493, Final residual = 0.000435096, No Iterations 5
smoothSolver:  Solving for Uy, Initial residual = 0.0467426, Final residual = 0.00361332, No Iterations 4
Pressure gradient source: uncorrected Ubar = 0.999986, pressure gradient = 0.0033309
GAMG:  Solving for p, Initial residual = 0.0106218, Final residual = 0.00105331, No Iterations 13
time step continuity errors : sum local = 4.60812e-07, global = 6.9609e-19, cumulative = -4.95912e-17
Pressure gradient source: uncorrected Ubar = 1, pressure gradient = 0.00288625
smoothSolver:  Solving for omega, Initial residual = 5.16193e-05, Final residual = 6.77571e-06, No Iterations 4
smoothSolver:  Solving for k, Initial residual = 0.0102079, Final residual = 0.00077738, No Iterations 6
ExecutionTime = 0.196349 s  ClockTime = 0 s

Time = 83s

smoothSolver:  Solving for Ux, Initial residual = 0.00434102, Final residual = 0.00042655, No Iterations 5
smoothSolver:  Solving for Uy, Initial residual = 0.0261766, Final residual = 0.00215635, No Iterations 4
Pressure gradient source: uncorrected Ubar = 0.999988, pressure gradient = 0.00328714
GAMG:  Solving for p, Initial residual = 0.0099397, Final residual = 0.000991422, No Iterations 7
time step continuity errors : sum local = 4.41564e-07, global = 3.57164e-18, cumulative = -4.60196e-17
Pressure gradient source: uncorrected Ubar = 1, pressure gradient = 0.00288218
smoothSolver:  Solving for omega, Initial residual = 5.04807e-05, Final residual = 6.29703e-06, No Iterations 4
smoothSolver:  Solving for k, Initial residual = 0.0102086, Final residual = 0.000699966, No Iterations 6
ExecutionTime = 0.198421 s  ClockTime = 0 s

Time = 84s

smoothSolver:  Solving for Ux, Initial residual = 0.00427375, Final residual = 0.000419244, No Iterations 5
smoothSolver:  Solving for Uy, Initial residual = 0.0502573, Final residual = 0.00309741, No Iterations 4
Pressure gradient source: uncorrected Ubar = 0.999986, pressure gradient = 0.00333426
GAMG:  Solving for p, Initial residual = 0.0236084, Final residual = 0.00179838, No Iterations 3
time step continuity errors : sum local = 7.88448e-07, global = -2.34901e-18, cumulative = -4.83686e-17
Pressure gradient source: uncorrected Ubar = 1, pressure gradient = 0.00288702
smoothSolver:  Solving for omega, Initial residual = 4.92071e-05, Final residual = 9.70755e-06, No Iterations 3
smoothSolver:  Solving for k, Initial residual = 0.0106609, Final residual = 0.000798109, No Iterations 6
ExecutionTime = 0.200362 s  ClockTime = 0 s

Time = 85s

smoothSolver:  Solving for Ux, Initial residual = 0.004198, Final residual = 0.000410727, No Iterations 5
smoothSolver:  Solving for Uy, Initial residual = 0.0609977, Final residual = 0.0041417, No Iterations 4
Pressure gradient source: uncorrected Ubar = 0.999988, pressure gradient = 0.00329313
GAMG:  Solving for p, Initial residual = 0.0148365, Final residual = 0.00140673, No Iterations 3
time step continuity errors : sum local = 6.10826e-07, global = 1.01679e-18, cumulative = -4.73518e-17
Pressure gradient source: uncorrected Ubar = 1, pressure gradient = 0.00288533
smoothSolver:  Solving for omega, Initial residual = 4.88547e-05, Final residual = 9.98667e-06, No Iterations 3
smoothSolver:  Solving for k, Initial residual = 0.0109605, Final residual = 0.000807245, No Iterations 6
ExecutionTime = 0.202252 s  ClockTime = 0 s

Time = 86s

smoothSolver:  Solving for Ux, Initial residual = 0.00412819, Final residual = 0.000402896, No Iterations 5
smoothSolver:  Solving for Uy, Initial residual = 0.0341404, Final residual = 0.00212288, No Iterations 4
Pressure gradient source: uncorrected Ubar = 0.999987, pressure gradient = 0.00331218
GAMG:  Solving for p, Initial residual = 0.0124664, Final residual = 0.00107001, No Iterations 3
time step continuity errors : sum local = 4.99977e-07, global = -5.7355e-19, cumulative = -4.79254e-17
Pressure gradient source: uncorrected Ubar = 1, pressure gradient = 0.00288795
smoothSolver:  Solving for omega, Initial residual = 4.83018e-05, Final residual = 9.88511e-06, No Iterations 3
smoothSolver:  Solving for k, Initial residual = 0.011182, Final residual = 0.000792004, No Iterations 6
ExecutionTime = 0.204267 s  ClockTime = 0 s

Time = 87s

smoothSolver:  Solving for Ux, Initial residual = 0.0040611, Final residual = 0.000395519, No Iterations 5
smoothSolver:  Solving for Uy, Initial residual = 0.0430983, Final residual = 0.00334659, No Iterations 4
Pressure gradient source: uncorrected Ubar = 0.999987, pressure gradient = 0.00331347
GAMG:  Solving for p, Initial residual = 0.00932128, Final residual = 0.000848955, No Iterations 3
time step continuity errors : sum local = 3.55295e-07, global = 5.94285e-19, cumulative = -4.73311e-17
Pressure gradient source: uncorrected Ubar = 1, pressure gradient = 0.0028913
smoothSolver:  Solving for omega, Initial residual = 4.78304e-05, Final residual = 9.69002e-06, No Iterations 3
smoothSolver:  Solving for k, Initial residual = 0.0113232, Final residual = 0.000798232, No Iterations 6
ExecutionTime = 0.206622 s  ClockTime = 0 s

Time = 88s

smoothSolver:  Solving for Ux, Initial residual = 0.00399227, Final residual = 0.000387767, No Iterations 5
smoothSolver:  Solving for Uy, Initial residual = 0.0476057, Final residual = 0.00377554, No Iterations 4
Pressure gradient source: uncorrected Ubar = 0.999988, pressure gradient = 0.00329306
GAMG:  Solving for p, Initial residual = 0.0161916, Final residual = 0.0016034, No Iterations 11
time step continuity errors : sum local = 7.638e-07, global = -6.86265e-19, cumulative = -4.80173e-17
Pressure gradient source: uncorrected Ubar = 1, pressure gradient = 0.00289169
smoothSolver:  Solving for omega, Initial residual = 4.71212e-05, Final residual = 9.44167e-06, No Iterations 3
smoothSolver:  Solving for k, Initial residual = 0.0113158, Final residual = 0.00103468, No Iterations 5
ExecutionTime = 0.208929 s  ClockTime = 0 s

Time = 89s

smoothSolver:  Solving for Ux, Initial residual = 0.0039227, Final residual = 0.000379946, No Iterations 5
smoothSolver:  Solving for Uy, Initial residual = 0.0652167, Final residual = 0.00549406, No Iterations 4
[...]
Pressure gradient source: uncorrected Ubar = 1, pressure gradient = 0.00322472
smoothSolver:  Solving for omega, Initial residual = 6.16727e-06, Final residual = 6.16727e-06, No Iterations 0
smoothSolver:  Solving for k, Initial residual = 6.50919e-05, Final residual = 9.32609e-06, No Iterations 4
ExecutionTime = 1.08676 s  ClockTime = 1 s

Time = 497s

smoothSolver:  Solving for Ux, Initial residual = 9.68779e-06, Final residual = 9.68779e-06, No Iterations 0
smoothSolver:  Solving for Uy, Initial residual = 0.0124874, Final residual = 0.0009508, No Iterations 3
Pressure gradient source: uncorrected Ubar = 1, pressure gradient = 0.00322472
GAMG:  Solving for p, Initial residual = 0.00198301, Final residual = 0.000156228, No Iterations 7
time step continuity errors : sum local = 1.63226e-09, global = 5.81286e-18, cumulative = -1.43361e-16
Pressure gradient source: uncorrected Ubar = 1, pressure gradient = 0.00322466
smoothSolver:  Solving for omega, Initial residual = 6.18663e-06, Final residual = 6.18663e-06, No Iterations 0
smoothSolver:  Solving for k, Initial residual = 6.71091e-05, Final residual = 7.33453e-06, No Iterations 5
ExecutionTime = 1.08903 s  ClockTime = 1 s

Time = 498s

smoothSolver:  Solving for Ux, Initial residual = 9.84898e-06, Final residual = 9.84898e-06, No Iterations 0
smoothSolver:  Solving for Uy, Initial residual = 0.0156716, Final residual = 0.00141418, No Iterations 3
Pressure gradient source: uncorrected Ubar = 1, pressure gradient = 0.00322466
GAMG:  Solving for p, Initial residual = 0.00183767, Final residual = 0.000149942, No Iterations 6
time step continuity errors : sum local = 1.62333e-09, global = 1.78378e-18, cumulative = -1.41577e-16
Pressure gradient source: uncorrected Ubar = 1, pressure gradient = 0.00322459
smoothSolver:  Solving for omega, Initial residual = 6.20605e-06, Final residual = 6.20605e-06, No Iterations 0
smoothSolver:  Solving for k, Initial residual = 6.57242e-05, Final residual = 6.62508e-06, No Iterations 5
ExecutionTime = 1.09116 s  ClockTime = 1 s

Time = 499s

smoothSolver:  Solving for Ux, Initial residual = 1.00226e-05, Final residual = 6.39498e-06, No Iterations 1
smoothSolver:  Solving for Uy, Initial residual = 0.0162705, Final residual = 0.00141669, No Iterations 3
Pressure gradient source: uncorrected Ubar = 1, pressure gradient = 0.00322499
GAMG:  Solving for p, Initial residual = 0.0129277, Final residual = 0.00124284, No Iterations 16
time step continuity errors : sum local = 1.32246e-08, global = -2.13759e-18, cumulative = -1.43715e-16
Pressure gradient source: uncorrected Ubar = 1, pressure gradient = 0.00322463
smoothSolver:  Solving for omega, Initial residual = 6.2759e-06, Final residual = 6.2759e-06, No Iterations 0
smoothSolver:  Solving for k, Initial residual = 6.17384e-05, Final residual = 9.06821e-06, No Iterations 4
ExecutionTime = 1.09355 s  ClockTime = 1 s

Time = 500s

smoothSolver:  Solving for Ux, Initial residual = 1.01393e-05, Final residual = 6.42975e-06, No Iterations 1
smoothSolver:  Solving for Uy, Initial residual = 0.0789149, Final residual = 0.00455208, No Iterations 4
Pressure gradient source: uncorrected Ubar = 1, pressure gradient = 0.00322455
GAMG:  Solving for p, Initial residual = 0.0110671, Final residual = 0.000948754, No Iterations 19
time step continuity errors : sum local = 1.06502e-08, global = -6.73445e-18, cumulative = -1.50449e-16
Pressure gradient source: uncorrected Ubar = 1, pressure gradient = 0.00322452
smoothSolver:  Solving for omega, Initial residual = 6.3389e-06, Final residual = 6.3389e-06, No Iterations 0
smoothSolver:  Solving for k, Initial residual = 6.11189e-05, Final residual = 8.89469e-06, No Iterations 4
ExecutionTime = 1.09601 s  ClockTime = 1 s

Time = 501s

smoothSolver:  Solving for Ux, Initial residual = 1.0185e-05, Final residual = 6.43906e-06, No Iterations 1
smoothSolver:  Solving for Uy, Initial residual = 0.109246, Final residual = 0.00695712, No Iterations 4
Pressure gradient source: uncorrected Ubar = 1, pressure gradient = 0.00322437
GAMG:  Solving for p, Initial residual = 0.00899311, Final residual = 0.000892311, No Iterations 17
time step continuity errors : sum local = 8.64545e-09, global = 9.22641e-18, cumulative = -1.41223e-16
Pressure gradient source: uncorrected Ubar = 1, pressure gradient = 0.00322441
smoothSolver:  Solving for omega, Initial residual = 6.39442e-06, Final residual = 6.39442e-06, No Iterations 0
smoothSolver:  Solving for k, Initial residual = 5.88119e-05, Final residual = 7.92226e-06, No Iterations 4
ExecutionTime = 1.09836 s  ClockTime = 1 s

Time = 502s

smoothSolver:  Solving for Ux, Initial residual = 1.02241e-05, Final residual = 6.44234e-06, No Iterations 1
smoothSolver:  Solving for Uy, Initial residual = 0.11136, Final residual = 0.00618447, No Iterations 4
Pressure gradient source: uncorrected Ubar = 1, pressure gradient = 0.00322421
GAMG:  Solving for p, Initial residual = 0.00711249, Final residual = 0.000544152, No Iterations 19
time step continuity errors : sum local = 5.72142e-09, global = -7.88224e-18, cumulative = -1.49105e-16
Pressure gradient source: uncorrected Ubar = 1, pressure gradient = 0.00322428
smoothSolver:  Solving for omega, Initial residual = 6.44339e-06, Final residual = 6.44339e-06, No Iterations 0
smoothSolver:  Solving for k, Initial residual = 5.87853e-05, Final residual = 8.46292e-06, No Iterations 4
ExecutionTime = 1.10075 s  ClockTime = 1 s

Time = 503s

smoothSolver:  Solving for Ux, Initial residual = 1.02679e-05, Final residual = 6.45149e-06, No Iterations 1
smoothSolver:  Solving for Uy, Initial residual = 0.099645, Final residual = 0.00533057, No Iterations 4
Pressure gradient source: uncorrected Ubar = 1, pressure gradient = 0.00322406
GAMG:  Solving for p, Initial residual = 0.00632661, Final residual = 0.000591454, No Iterations 19
time step continuity errors : sum local = 6.77019e-09, global = -7.78572e-18, cumulative = -1.56891e-16
Pressure gradient source: uncorrected Ubar = 1, pressure gradient = 0.00322416
smoothSolver:  Solving for omega, Initial residual = 6.48787e-06, Final residual = 6.48787e-06, No Iterations 0
smoothSolver:  Solving for k, Initial residual = 5.85349e-05, Final residual = 9.28501e-06, No Iterations 4
ExecutionTime = 1.1032 s  ClockTime = 1 s

Time = 504s

smoothSolver:  Solving for Ux, Initial residual = 1.02975e-05, Final residual = 6.46407e-06, No Iterations 1
smoothSolver:  Solving for Uy, Initial residual = 0.0771248, Final residual = 0.00441376, No Iterations 4
Pressure gradient source: uncorrected Ubar = 1, pressure gradient = 0.00322393
GAMG:  Solving for p, Initial residual = 0.00554367, Final residual = 0.000547028, No Iterations 18
time step continuity errors : sum local = 5.87163e-09, global = -1.6981e-18, cumulative = -1.58589e-16
Pressure gradient source: uncorrected Ubar = 1, pressure gradient = 0.00322404
smoothSolver:  Solving for omega, Initial residual = 6.5289e-06, Final residual = 6.5289e-06, No Iterations 0
smoothSolver:  Solving for k, Initial residual = 5.76709e-05, Final residual = 8.98111e-06, No Iterations 4
ExecutionTime = 1.10585 s  ClockTime = 1 s

Time = 505s

smoothSolver:  Solving for Ux, Initial residual = 1.03559e-05, Final residual = 6.48644e-06, No Iterations 1
smoothSolver:  Solving for Uy, Initial residual = 0.0527918, Final residual = 0.0035073, No Iterations 4
Pressure gradient source: uncorrected Ubar = 1, pressure gradient = 0.0032238
GAMG:  Solving for p, Initial residual = 0.00453145, Final residual = 0.000404134, No Iterations 17
time step continuity errors : sum local = 4.02523e-09, global = 4.20759e-19, cumulative = -1.58168e-16
Pressure gradient source: uncorrected Ubar = 1, pressure gradient = 0.00322393
smoothSolver:  Solving for omega, Initial residual = 6.56693e-06, Final residual = 6.56693e-06, No Iterations 0
smoothSolver:  Solving for k, Initial residual = 5.34772e-05, Final residual = 6.79929e-06, No Iterations 4
ExecutionTime = 1.10829 s  ClockTime = 1 s

Time = 506s

smoothSolver:  Solving for Ux, Initial residual = 1.03973e-05, Final residual = 6.50596e-06, No Iterations 1
smoothSolver:  Solving for Uy, Initial residual = 0.0318703, Final residual = 0.00238857, No Iterations 4
Pressure gradient source: uncorrected Ubar = 1, pressure gradient = 0.00322368
GAMG:  Solving for p, Initial residual = 0.00415937, Final residual = 0.00034316, No Iterations 16
time step continuity errors : sum local = 3.5388e-09, global = 5.4807e-18, cumulative = -1.52687e-16
Pressure gradient source: uncorrected Ubar = 1, pressure gradient = 0.00322381
smoothSolver:  Solving for omega, Initial residual = 6.60259e-06, Final residual = 6.60259e-06, No Iterations 0
smoothSolver:  Solving for k, Initial residual = 5.57339e-05, Final residual = 9.68161e-06, No Iterations 4
ExecutionTime = 1.11061 s  ClockTime = 1 s

Time = 507s

smoothSolver:  Solving for Ux, Initial residual = 1.04597e-05, Final residual = 6.53953e-06, No Iterations 1
smoothSolver:  Solving for Uy, Initial residual = 0.0240574, Final residual = 0.0015181, No Iterations 4
Pressure gradient source: uncorrected Ubar = 1, pressure gradient = 0.00322355
GAMG:  Solving for p, Initial residual = 0.00374713, Final residual = 0.000328085, No Iterations 11
time step continuity errors : sum local = 3.66726e-09, global = -4.4897e-18, cumulative = -1.57177e-16
Pressure gradient source: uncorrected Ubar = 1, pressure gradient = 0.0032237
smoothSolver:  Solving for omega, Initial residual = 6.63644e-06, Final residual = 6.63644e-06, No Iterations 0
smoothSolver:  Solving for k, Initial residual = 5.32598e-05, Final residual = 7.75449e-06, No Iterations 4
ExecutionTime = 1.1127 s  ClockTime = 1 s

Time = 508s

smoothSolver:  Solving for Ux, Initial residual = 1.0515e-05, Final residual = 6.56672e-06, No Iterations 1
smoothSolver:  Solving for Uy, Initial residual = 0.0287045, Final residual = 0.00161317, No Iterations 4
Pressure gradient source: uncorrected Ubar = 1, pressure gradient = 0.00322346
GAMG:  Solving for p, Initial residual = 0.00368503, Final residual = 0.000327862, No Iterations 8
time step continuity errors : sum local = 3.32212e-09, global = 6.65393e-18, cumulative = -1.50523e-16
Pressure gradient source: uncorrected Ubar = 1, pressure gradient = 0.0032236
smoothSolver:  Solving for omega, Initial residual = 6.66867e-06, Final residual = 6.66867e-06, No Iterations 0
smoothSolver:  Solving for k, Initial residual = 5.19952e-05, Final residual = 7.12835e-06, No Iterations 4
ExecutionTime = 1.11473 s  ClockTime = 1 s

Time = 509s

smoothSolver:  Solving for Ux, Initial residual = 1.05954e-05, Final residual = 6.61203e-06, No Iterations 1
smoothSolver:  Solving for Uy, Initial residual = 0.0201968, Final residual = 0.00122695, No Iterations 4
Pressure gradient source: uncorrected Ubar = 1, pressure gradient = 0.00322337
GAMG:  Solving for p, Initial residual = 0.00299531, Final residual = 0.000156736, No Iterations 3
time step continuity errors : sum local = 1.78274e-09, global = -2.57894e-18, cumulative = -1.53102e-16
Pressure gradient source: uncorrected Ubar = 1, pressure gradient = 0.0032235
smoothSolver:  Solving for omega, Initial residual = 6.69943e-06, Final residual = 6.69943e-06, No Iterations 0
smoothSolver:  Solving for k, Initial residual = 5.11416e-05, Final residual = 8.34376e-06, No Iterations 4
ExecutionTime = 1.11658 s  ClockTime = 1 s

Time = 510s

smoothSolver:  Solving for Ux, Initial residual = 1.06711e-05, Final residual = 6.65367e-06, No Iterations 1
smoothSolver:  Solving for Uy, Initial residual = 0.0208936, Final residual = 0.00113907, No Iterations 4
Pressure gradient source: uncorrected Ubar = 1, pressure gradient = 0.00322326
GAMG:  Solving for p, Initial residual = 0.00313889, Final residual = 0.000280781, No Iterations 7
time step continuity errors : sum local = 3.04055e-09, global = 6.84295e-18, cumulative = -1.46259e-16
Pressure gradient source: uncorrected Ubar = 1, pressure gradient = 0.0032234
smoothSolver:  Solving for omega, Initial residual = 6.72932e-06, Final residual = 6.72932e-06, No Iterations 0
smoothSolver:  Solving for k, Initial residual = 4.89396e-05, Final residual = 6.46227e-06, No Iterations 4
ExecutionTime = 1.11908 s  ClockTime = 1 s

Time = 511s

smoothSolver:  Solving for Ux, Initial residual = 1.07661e-05, Final residual = 6.70864e-06, No Iterations 1
smoothSolver:  Solving for Uy, Initial residual = 0.0196145, Final residual = 0.00102233, No Iterations 4
Pressure gradient source: uncorrected Ubar = 1, pressure gradient = 0.00322316
GAMG:  Solving for p, Initial residual = 0.00315822, Final residual = 0.00031007, No Iterations 9
time step continuity errors : sum local = 3.30816e-09, global = -7.08413e-18, cumulative = -1.53343e-16
Pressure gradient source: uncorrected Ubar = 1, pressure gradient = 0.0032233
smoothSolver:  Solving for omega, Initial residual = 6.75826e-06, Final residual = 6.75826e-06, No Iterations 0
smoothSolver:  Solving for k, Initial residual = 4.96172e-05, Final residual = 7.25735e-06, No Iterations 4
ExecutionTime = 1.12123 s  ClockTime = 1 s

Time = 512s

smoothSolver:  Solving for Ux, Initial residual = 1.08513e-05, Final residual = 6.75315e-06, No Iterations 1
smoothSolver:  Solving for Uy, Initial residual = 0.0201313, Final residual = 0.00119714, No Iterations 4
Pressure gradient source: uncorrected Ubar = 1, pressure gradient = 0.00322307
GAMG:  Solving for p, Initial residual = 0.00230318, Final residual = 0.000227984, No Iterations 16
time step continuity errors : sum local = 2.71145e-09, global = -6.72627e-18, cumulative = -1.60069e-16
Pressure gradient source: uncorrected Ubar = 1, pressure gradient = 0.00322321
smoothSolver:  Solving for omega, Initial residual = 6.78652e-06, Final residual = 6.78652e-06, No Iterations 0
smoothSolver:  Solving for k, Initial residual = 4.96148e-05, Final residual = 8.16033e-06, No Iterations 4
ExecutionTime = 1.124 s  ClockTime = 1 s

Time = 513s

smoothSolver:  Solving for Ux, Initial residual = 1.09517e-05, Final residual = 6.80849e-06, No Iterations 1
smoothSolver:  Solving for Uy, Initial residual = 0.0174315, Final residual = 0.00104673, No Iterations 4
Pressure gradient source: uncorrected Ubar = 1, pressure gradient = 0.00322298
GAMG:  Solving for p, Initial residual = 0.00298602, Final residual = 0.0002942, No Iterations 13
time step continuity errors : sum local = 3.4766e-09, global = 2.08919e-18, cumulative = -1.5798e-16
Pressure gradient source: uncorrected Ubar = 1, pressure gradient = 0.00322312
smoothSolver:  Solving for omega, Initial residual = 6.81435e-06, Final residual = 6.81435e-06, No Iterations 0
smoothSolver:  Solving for k, Initial residual = 4.66077e-05, Final residual = 6.24682e-06, No Iterations 4
ExecutionTime = 1.12631 s  ClockTime = 1 s

Time = 514s

smoothSolver:  Solving for Ux, Initial residual = 1.10455e-05, Final residual = 6.85782e-06, No Iterations 1
smoothSolver:  Solving for Uy, Initial residual = 0.0154801, Final residual = 0.000892976, No Iterations 4
Pressure gradient source: uncorrected Ubar = 1, pressure gradient = 0.00322291
GAMG:  Solving for p, Initial residual = 0.00317974, Final residual = 0.000251066, No Iterations 13
time step continuity errors : sum local = 2.86071e-09, global = 1.22658e-17, cumulative = -1.45714e-16
Pressure gradient source: uncorrected Ubar = 1, pressure gradient = 0.00322304
smoothSolver:  Solving for omega, Initial residual = 6.84149e-06, Final residual = 6.84149e-06, No Iterations 0
smoothSolver:  Solving for k, Initial residual = 4.40704e-05, Final residual = 8.89662e-06, No Iterations 3
ExecutionTime = 1.12847 s  ClockTime = 1 s

Time = 515s

smoothSolver:  Solving for Ux, Initial residual = 1.11251e-05, Final residual = 6.90032e-06, No Iterations 1
smoothSolver:  Solving for Uy, Initial residual = 0.0152392, Final residual = 0.000806749, No Iterations 4
Pressure gradient source: uncorrected Ubar = 1, pressure gradient = 0.00322284
GAMG:  Solving for p, Initial residual = 0.00324995, Final residual = 0.000263874, No Iterations 13
time step continuity errors : sum local = 2.88098e-09, global = -1.37675e-17, cumulative = -1.59482e-16
Pressure gradient source: uncorrected Ubar = 1, pressure gradient = 0.00322297
smoothSolver:  Solving for omega, Initial residual = 6.86813e-06, Final residual = 6.86813e-06, No Iterations 0
smoothSolver:  Solving for k, Initial residual = 4.59023e-05, Final residual = 6.9708e-06, No Iterations 4
ExecutionTime = 1.13062 s  ClockTime = 1 s

Time = 516s

smoothSolver:  Solving for Ux, Initial residual = 1.1207e-05, Final residual = 6.94314e-06, No Iterations 1
smoothSolver:  Solving for Uy, Initial residual = 0.0141555, Final residual = 0.000742714, No Iterations 4
Pressure gradient source: uncorrected Ubar = 1, pressure gradient = 0.00322276
GAMG:  Solving for p, Initial residual = 0.00280181, Final residual = 0.000214274, No Iterations 14
time step continuity errors : sum local = 2.33224e-09, global = -5.87161e-18, cumulative = -1.65354e-16
Pressure gradient source: uncorrected Ubar = 1, pressure gradient = 0.00322289
smoothSolver:  Solving for omega, Initial residual = 6.89465e-06, Final residual = 6.89465e-06, No Iterations 0
smoothSolver:  Solving for k, Initial residual = 4.44041e-05, Final residual = 6.28604e-06, No Iterations 4
ExecutionTime = 1.13279 s  ClockTime = 1 s

Time = 517s

smoothSolver:  Solving for Ux, Initial residual = 1.12991e-05, Final residual = 6.99114e-06, No Iterations 1
smoothSolver:  Solving for Uy, Initial residual = 0.0129001, Final residual = 0.000650421, No Iterations 4
Pressure gradient source: uncorrected Ubar = 1, pressure gradient = 0.00322269
GAMG:  Solving for p, Initial residual = 0.00247572, Final residual = 0.000217655, No Iterations 10
time step continuity errors : sum local = 1.98898e-09, global = 3.47879e-18, cumulative = -1.61875e-16
Pressure gradient source: uncorrected Ubar = 1, pressure gradient = 0.00322282
smoothSolver:  Solving for omega, Initial residual = 6.92111e-06, Final residual = 6.92111e-06, No Iterations 0
smoothSolver:  Solving for k, Initial residual = 4.46089e-05, Final residual = 7.17397e-06, No Iterations 4
ExecutionTime = 1.13487 s  ClockTime = 1 s

Time = 518s

smoothSolver:  Solving for Ux, Initial residual = 1.13783e-05, Final residual = 7.03298e-06, No Iterations 1
smoothSolver:  Solving for Uy, Initial residual = 0.0101574, Final residual = 0.000575612, No Iterations 4
Pressure gradient source: uncorrected Ubar = 1, pressure gradient = 0.00322261
GAMG:  Solving for p, Initial residual = 0.00218611, Final residual = 0.000217272, No Iterations 13
time step continuity errors : sum local = 2.40924e-09, global = 9.97451e-18, cumulative = -1.519e-16
Pressure gradient source: uncorrected Ubar = 1, pressure gradient = 0.00322275
smoothSolver:  Solving for omega, Initial residual = 6.94766e-06, Final residual = 6.94766e-06, No Iterations 0
smoothSolver:  Solving for k, Initial residual = 4.18487e-05, Final residual = 9.21997e-06, No Iterations 3
ExecutionTime = 1.1371 s  ClockTime = 1 s

Time = 519s

smoothSolver:  Solving for Ux, Initial residual = 1.14413e-05, Final residual = 7.06647e-06, No Iterations 1
smoothSolver:  Solving for Uy, Initial residual = 0.00948326, Final residual = 0.00080778, No Iterations 3
Pressure gradient source: uncorrected Ubar = 1, pressure gradient = 0.00322255
GAMG:  Solving for p, Initial residual = 0.00201827, Final residual = 0.000143463, No Iterations 9
time step continuity errors : sum local = 1.63673e-09, global = 4.31648e-18, cumulative = -1.47584e-16
Pressure gradient source: uncorrected Ubar = 1, pressure gradient = 0.00322268
smoothSolver:  Solving for omega, Initial residual = 6.97373e-06, Final residual = 6.97373e-06, No Iterations 0
smoothSolver:  Solving for k, Initial residual = 4.00175e-05, Final residual = 8.12589e-06, No Iterations 3
ExecutionTime = 1.13967 s  ClockTime = 1 s


SIMPLE solution converged in 519 iterations

End

