/*---------------------------------------------------------------------------*\
  =========                 |
  \\      /  F ield         | OpenFOAM: The Open Source CFD Toolbox
   \\    /   O peration     | Website:  https://openfoam.org
    \\  /    A nd           | Version:  10
     \\/     M anipulation  |
\*---------------------------------------------------------------------------*/
Build  : 10-e450dce21ea5
Exec   : blockMesh
Date   : Feb 20 2023
Time   : 14:13:53
Host   : "w530-R9YK46P"
PID    : 18760
I/O    : uncollated
Case   : /home/jdmezazeron/gitDanielMezaZ/turbulenceVisualized/Data/SimulationFiles/K26_Re1896
nProcs : 1
sigFpe : Enabling floating point exception trapping (FOAM_SIGFPE).
fileModificationChecking : Monitoring run-time modified files using timeStampMaster (fileModificationSkew 10)
allowSystemOperations : Allowing user-supplied system call operations

// * * * * * * * * * * * * * * * * * * * * * * * * * * * * * * * * * * * * * //
Create time

Deleting polyMesh directory
    "/home/jdmezazeron/gitDanielMezaZ/turbulenceVisualized/Data/SimulationFiles/K26_Re1896/constant/polyMesh"
Reading "blockMeshDict"

Creating block mesh from
    "system/blockMeshDict"
Creating block edges
No non-planar block faces defined
Creating topology blocks
Creating topology patches

Creating block mesh topology

Check topology

	Basic statistics
		Number of internal faces : 0
		Number of boundary faces : 6
		Number of defined boundary faces : 6
		Number of undefined boundary faces : 0
	Checking patch -> block consistency

Creating block offsets
Creating merge list .

Creating polyMesh from blockMesh
Creating patches
Creating cells
Creating points with scale 1
    Block 0 cell size :
        i : 0.5
        j : 0.00461374 .. 0.018455
        k : 2

Detected cyclic patches; ordering boundary faces

Writing polyMesh
----------------
Mesh Information
----------------
  boundingBox: (-1 0 -1) (1 1 1)
  nPoints: 1010
  nCells: 400
  nFaces: 1704
  nInternalFaces: 696
----------------
Patches
----------------
  patch 0 (start: 696 size: 100) name: inlet
  patch 1 (start: 796 size: 100) name: outlet
  patch 2 (start: 896 size: 4) name: fixedWalls-bottom
  patch 3 (start: 900 size: 4) name: fixedWalls-top
  patch 4 (start: 904 size: 800) name: frontAndBack

End

/*---------------------------------------------------------------------------*\
  =========                 |
  \\      /  F ield         | OpenFOAM: The Open Source CFD Toolbox
   \\    /   O peration     | Website:  https://openfoam.org
    \\  /    A nd           | Version:  10
     \\/     M anipulation  |
\*---------------------------------------------------------------------------*/
Build  : 10-e450dce21ea5
Exec   : simpleFoam
Date   : Feb 20 2023
Time   : 14:13:53
Host   : "w530-R9YK46P"
PID    : 18761
I/O    : uncollated
Case   : /home/jdmezazeron/gitDanielMezaZ/turbulenceVisualized/Data/SimulationFiles/K26_Re1896
nProcs : 1
sigFpe : Enabling floating point exception trapping (FOAM_SIGFPE).
fileModificationChecking : Monitoring run-time modified files using timeStampMaster (fileModificationSkew 10)
allowSystemOperations : Allowing user-supplied system call operations

// * * * * * * * * * * * * * * * * * * * * * * * * * * * * * * * * * * * * * //
Create time

Create mesh for time = 0


SIMPLE: Convergence criteria found
        U: tolerance 0.0001
        p: tolerance 0.01
        omega: tolerance 0.0001

Reading field p

Reading field U

Reading/calculating face flux field phi

Selecting viscosity model Newtonian
Selecting turbulence model type RAS
Selecting RAS turbulence model kOmegaSST
Selecting patchDistMethod meshWave
RAS
{
    RASModel        kOmegaSST;
    turbulence      on;
    printCoeffs     on;
    alphaK1         0.85;
    alphaK2         1;
    alphaOmega1     0.5;
    alphaOmega2     0.856;
    gamma1          0.555556;
    gamma2          0.44;
    beta1           0.075;
    beta2           0.0828;
    betaStar        0.09;
    a1              0.31;
    b1              1;
    c1              10;
    F3              false;
}

No MRF models present

--> FOAM Warning : Creating fvModels from "system/fvOptions" rather than constant/fvModels
No fvModels present
--> FOAM Warning : Creating fvConstraints from "system/fvOptions"

Selecting finite volume constraint type meanVelocityForce
    Name: momentumSource
    - selecting all cells
    - selected 400 cell(s) with volume 4
    Initial pressure gradient = 0


Starting time loop

turbulenceFields stressComponents: storing fields:
    R

Time = 1s

smoothSolver:  Solving for Ux, Initial residual = 0, Final residual = 0, No Iterations 0
smoothSolver:  Solving for Uy, Initial residual = 0, Final residual = 0, No Iterations 0
Pressure gradient source: uncorrected Ubar = 0, pressure gradient = 1273.29
GAMG:  Solving for p, Initial residual = 0.999996, Final residual = 0.0574246, No Iterations 3
time step continuity errors : sum local = 1.02576e-16, global = 2.48112e-18, cumulative = 2.48112e-18
Pressure gradient source: uncorrected Ubar = 0.884653, pressure gradient = 146.87
smoothSolver:  Solving for omega, Initial residual = 0.210198, Final residual = 0.0127005, No Iterations 3
smoothSolver:  Solving for k, Initial residual = 1, Final residual = 0.0925609, No Iterations 2
ExecutionTime = 0.014014 s  ClockTime = 0 s

Time = 2s

smoothSolver:  Solving for Ux, Initial residual = 0.98985, Final residual = 0.0911131, No Iterations 6
smoothSolver:  Solving for Uy, Initial residual = 1, Final residual = 0.0815999, No Iterations 5
Pressure gradient source: uncorrected Ubar = 42.6033, pressure gradient = -1093.92
GAMG:  Solving for p, Initial residual = 1, Final residual = 0.093804, No Iterations 11
time step continuity errors : sum local = 0.0340368, global = 1.44741e-17, cumulative = 1.69552e-17
Pressure gradient source: uncorrected Ubar = 6.36524, pressure gradient = -13.1444
smoothSolver:  Solving for omega, Initial residual = 0.19395, Final residual = 0.00106693, No Iterations 1
smoothSolver:  Solving for k, Initial residual = 0.972573, Final residual = 0.0351517, No Iterations 1
ExecutionTime = 0.01691 s  ClockTime = 0 s

Time = 3s

smoothSolver:  Solving for Ux, Initial residual = 0.463499, Final residual = 0.0394307, No Iterations 6
smoothSolver:  Solving for Uy, Initial residual = 0.545314, Final residual = 0.0418143, No Iterations 2
Pressure gradient source: uncorrected Ubar = -1.32784, pressure gradient = 98.7588
GAMG:  Solving for p, Initial residual = 0.188475, Final residual = 0.01511, No Iterations 6
time step continuity errors : sum local = 0.0116641, global = -7.68157e-17, cumulative = -5.98605e-17
Pressure gradient source: uncorrected Ubar = 0.704955, pressure gradient = 1.03884
smoothSolver:  Solving for omega, Initial residual = 0.00967653, Final residual = 0.000313277, No Iterations 1
smoothSolver:  Solving for k, Initial residual = 0.404327, Final residual = 0.0226319, No Iterations 2
ExecutionTime = 0.019437 s  ClockTime = 0 s

Time = 4s

smoothSolver:  Solving for Ux, Initial residual = 0.103467, Final residual = 0.00923394, No Iterations 4
smoothSolver:  Solving for Uy, Initial residual = 0.308639, Final residual = 0.0165653, No Iterations 3
Pressure gradient source: uncorrected Ubar = 1.07099, pressure gradient = -1.37834
GAMG:  Solving for p, Initial residual = 0.121588, Final residual = 0.0106534, No Iterations 9
time step continuity errors : sum local = 0.0139185, global = -4.38594e-17, cumulative = -1.0372e-16
Pressure gradient source: uncorrected Ubar = 1.00998, pressure gradient = 0.699143
smoothSolver:  Solving for omega, Initial residual = 0.00803786, Final residual = 0.000300219, No Iterations 1
smoothSolver:  Solving for k, Initial residual = 0.509175, Final residual = 0.0507937, No Iterations 2
ExecutionTime = 0.022327 s  ClockTime = 0 s

Time = 5s

smoothSolver:  Solving for Ux, Initial residual = 0.0793585, Final residual = 0.00754493, No Iterations 4
smoothSolver:  Solving for Uy, Initial residual = 0.447202, Final residual = 0.0170265, No Iterations 3
Pressure gradient source: uncorrected Ubar = 0.992327, pressure gradient = 0.993881
GAMG:  Solving for p, Initial residual = 0.143359, Final residual = 0.0126284, No Iterations 11
time step continuity errors : sum local = 0.014862, global = -3.97902e-17, cumulative = -1.4351e-16
Pressure gradient source: uncorrected Ubar = 0.998219, pressure gradient = 0.76757
smoothSolver:  Solving for omega, Initial residual = 0.00506782, Final residual = 0.0002135, No Iterations 2
smoothSolver:  Solving for k, Initial residual = 0.67778, Final residual = 0.0180727, No Iterations 2
ExecutionTime = 0.0252 s  ClockTime = 0 s

Time = 6s

smoothSolver:  Solving for Ux, Initial residual = 0.0682327, Final residual = 0.00552534, No Iterations 4
smoothSolver:  Solving for Uy, Initial residual = 0.698191, Final residual = 0.0684717, No Iterations 2
Pressure gradient source: uncorrected Ubar = 0.958008, pressure gradient = 2.49244
GAMG:  Solving for p, Initial residual = 0.262299, Final residual = 0.0259012, No Iterations 8
time step continuity errors : sum local = 0.0259159, global = 5.44812e-18, cumulative = -1.38062e-16
Pressure gradient source: uncorrected Ubar = 0.992963, pressure gradient = 1.05664
smoothSolver:  Solving for omega, Initial residual = 0.0061653, Final residual = 0.000283662, No Iterations 2
smoothSolver:  Solving for k, Initial residual = 0.387076, Final residual = 0.0150509, No Iterations 2
ExecutionTime = 0.027865 s  ClockTime = 0 s

Time = 7s

smoothSolver:  Solving for Ux, Initial residual = 0.0500742, Final residual = 0.00468994, No Iterations 4
smoothSolver:  Solving for Uy, Initial residual = 0.500637, Final residual = 0.021696, No Iterations 3
Pressure gradient source: uncorrected Ubar = 0.966914, pressure gradient = 2.54069
GAMG:  Solving for p, Initial residual = 0.2378, Final residual = 0.0226534, No Iterations 6
time step continuity errors : sum local = 0.022145, global = -3.49045e-17, cumulative = -1.72967e-16
Pressure gradient source: uncorrected Ubar = 0.995956, pressure gradient = 1.23805
smoothSolver:  Solving for omega, Initial residual = 0.00469793, Final residual = 0.000148327, No Iterations 2
smoothSolver:  Solving for k, Initial residual = 0.21172, Final residual = 0.0133764, No Iterations 2
ExecutionTime = 0.030523 s  ClockTime = 0 s

Time = 8s

smoothSolver:  Solving for Ux, Initial residual = 0.0479144, Final residual = 0.00452345, No Iterations 4
smoothSolver:  Solving for Uy, Initial residual = 0.429463, Final residual = 0.0178644, No Iterations 3
Pressure gradient source: uncorrected Ubar = 0.987193, pressure gradient = 1.88309
GAMG:  Solving for p, Initial residual = 0.213179, Final residual = 0.0183757, No Iterations 10
time step continuity errors : sum local = 0.0169342, global = -2.46978e-17, cumulative = -1.97664e-16
Pressure gradient source: uncorrected Ubar = 0.998769, pressure gradient = 1.30007
smoothSolver:  Solving for omega, Initial residual = 0.00281621, Final residual = 0.000164823, No Iterations 2
smoothSolver:  Solving for k, Initial residual = 0.174843, Final residual = 0.00603656, No Iterations 3
ExecutionTime = 0.033354 s  ClockTime = 0 s

Time = 9s

smoothSolver:  Solving for Ux, Initial residual = 0.0379023, Final residual = 0.00358389, No Iterations 4
smoothSolver:  Solving for Uy, Initial residual = 0.319107, Final residual = 0.0209573, No Iterations 3
Pressure gradient source: uncorrected Ubar = 0.953201, pressure gradient = 4.11849
GAMG:  Solving for p, Initial residual = 0.221331, Final residual = 0.0188288, No Iterations 10
time step continuity errors : sum local = 0.0173639, global = -6.44423e-18, cumulative = -2.04109e-16
Pressure gradient source: uncorrected Ubar = 0.993676, pressure gradient = 1.68093
smoothSolver:  Solving for omega, Initial residual = 0.00209193, Final residual = 9.2862e-05, No Iterations 3
smoothSolver:  Solving for k, Initial residual = 0.143724, Final residual = 0.0117155, No Iterations 3
ExecutionTime = 0.036132 s  ClockTime = 0 s

Time = 10s

smoothSolver:  Solving for Ux, Initial residual = 0.0310529, Final residual = 0.00301098, No Iterations 4
smoothSolver:  Solving for Uy, Initial residual = 0.364156, Final residual = 0.0211637, No Iterations 3
Pressure gradient source: uncorrected Ubar = 0.973207, pressure gradient = 3.56368
GAMG:  Solving for p, Initial residual = 0.219671, Final residual = 0.0214492, No Iterations 7
time step continuity errors : sum local = 0.0232462, global = -2.32019e-17, cumulative = -2.2731e-16
Pressure gradient source: uncorrected Ubar = 0.996144, pressure gradient = 1.95192
smoothSolver:  Solving for omega, Initial residual = 0.00174929, Final residual = 0.000104709, No Iterations 3
smoothSolver:  Solving for k, Initial residual = 0.115103, Final residual = 0.00623187, No Iterations 4
ExecutionTime = 0.038781 s  ClockTime = 0 s

Time = 11s

smoothSolver:  Solving for Ux, Initial residual = 0.0263039, Final residual = 0.00258868, No Iterations 4
smoothSolver:  Solving for Uy, Initial residual = 0.265078, Final residual = 0.0181252, No Iterations 3
Pressure gradient source: uncorrected Ubar = 0.984766, pressure gradient = 3.16118
GAMG:  Solving for p, Initial residual = 0.258409, Final residual = 0.017294, No Iterations 9
time step continuity errors : sum local = 0.0146809, global = 2.39613e-17, cumulative = -2.03349e-16
Pressure gradient source: uncorrected Ubar = 0.99738, pressure gradient = 2.15985
smoothSolver:  Solving for omega, Initial residual = 0.00166059, Final residual = 0.000135372, No Iterations 3
smoothSolver:  Solving for k, Initial residual = 0.0915381, Final residual = 0.0066905, No Iterations 4
ExecutionTime = 0.041532 s  ClockTime = 0 s

Time = 12s

smoothSolver:  Solving for Ux, Initial residual = 0.022737, Final residual = 0.00149435, No Iterations 5
smoothSolver:  Solving for Uy, Initial residual = 0.361581, Final residual = 0.0209948, No Iterations 3
Pressure gradient source: uncorrected Ubar = 0.993623, pressure gradient = 2.72222
GAMG:  Solving for p, Initial residual = 0.202829, Final residual = 0.0168482, No Iterations 10
time step continuity errors : sum local = 0.0147454, global = 1.53965e-17, cumulative = -1.87953e-16
Pressure gradient source: uncorrected Ubar = 0.999214, pressure gradient = 2.22914
smoothSolver:  Solving for omega, Initial residual = 0.00151274, Final residual = 8.1829e-05, No Iterations 4
smoothSolver:  Solving for k, Initial residual = 0.0747296, Final residual = 0.00686295, No Iterations 4
ExecutionTime = 0.044331 s  ClockTime = 0 s

Time = 13s

smoothSolver:  Solving for Ux, Initial residual = 0.0198765, Final residual = 0.00132215, No Iterations 5
smoothSolver:  Solving for Uy, Initial residual = 0.301105, Final residual = 0.0233895, No Iterations 3
Pressure gradient source: uncorrected Ubar = 0.99249, pressure gradient = 2.96934
GAMG:  Solving for p, Initial residual = 0.158783, Final residual = 0.0154353, No Iterations 9
time step continuity errors : sum local = 0.0177245, global = 9.59858e-18, cumulative = -1.78354e-16
Pressure gradient source: uncorrected Ubar = 0.999079, pressure gradient = 2.31993
smoothSolver:  Solving for omega, Initial residual = 0.00149558, Final residual = 8.42624e-05, No Iterations 4
smoothSolver:  Solving for k, Initial residual = 0.0622984, Final residual = 0.0061524, No Iterations 4
ExecutionTime = 0.047091 s  ClockTime = 0 s

Time = 14s

smoothSolver:  Solving for Ux, Initial residual = 0.0179438, Final residual = 0.00121581, No Iterations 5
smoothSolver:  Solving for Uy, Initial residual = 0.284998, Final residual = 0.0255816, No Iterations 3
Pressure gradient source: uncorrected Ubar = 0.99479, pressure gradient = 2.89319
GAMG:  Solving for p, Initial residual = 0.11649, Final residual = 0.00901386, No Iterations 11
time step continuity errors : sum local = 0.0136512, global = 3.16553e-17, cumulative = -1.46699e-16
Pressure gradient source: uncorrected Ubar = 0.999446, pressure gradient = 2.38095
smoothSolver:  Solving for omega, Initial residual = 0.0013294, Final residual = 8.9583e-05, No Iterations 4
smoothSolver:  Solving for k, Initial residual = 0.0537612, Final residual = 0.00350755, No Iterations 5
ExecutionTime = 0.049996 s  ClockTime = 0 s

Time = 15s

smoothSolver:  Solving for Ux, Initial residual = 0.016367, Final residual = 0.00112819, No Iterations 5
smoothSolver:  Solving for Uy, Initial residual = 0.301088, Final residual = 0.02639, No Iterations 3
Pressure gradient source: uncorrected Ubar = 0.996717, pressure gradient = 2.78392
GAMG:  Solving for p, Initial residual = 0.0909567, Final residual = 0.0079748, No Iterations 9
time step continuity errors : sum local = 0.0128271, global = 2.37449e-17, cumulative = -1.22954e-16
Pressure gradient source: uncorrected Ubar = 0.999679, pressure gradient = 2.42038
smoothSolver:  Solving for omega, Initial residual = 0.00131525, Final residual = 0.000103498, No Iterations 4
smoothSolver:  Solving for k, Initial residual = 0.0463388, Final residual = 0.0033417, No Iterations 5
ExecutionTime = 0.052809 s  ClockTime = 0 s

Time = 16s

smoothSolver:  Solving for Ux, Initial residual = 0.0151503, Final residual = 0.00106401, No Iterations 5
smoothSolver:  Solving for Uy, Initial residual = 0.240641, Final residual = 0.0122795, No Iterations 4
Pressure gradient source: uncorrected Ubar = 0.999788, pressure gradient = 2.44869
GAMG:  Solving for p, Initial residual = 0.0686057, Final residual = 0.00625835, No Iterations 8
time step continuity errors : sum local = 0.0109245, global = -2.44488e-17, cumulative = -1.47403e-16
Pressure gradient source: uncorrected Ubar = 1.00003, pressure gradient = 2.41655
smoothSolver:  Solving for omega, Initial residual = 0.00122102, Final residual = 0.000103529, No Iterations 4
smoothSolver:  Solving for k, Initial residual = 0.040897, Final residual = 0.00324739, No Iterations 5
ExecutionTime = 0.055503 s  ClockTime = 0 s

Time = 17s

smoothSolver:  Solving for Ux, Initial residual = 0.0141335, Final residual = 0.00100622, No Iterations 5
smoothSolver:  Solving for Uy, Initial residual = 0.198621, Final residual = 0.0114871, No Iterations 4
Pressure gradient source: uncorrected Ubar = 1.00253, pressure gradient = 2.04521
GAMG:  Solving for p, Initial residual = 0.0579853, Final residual = 0.00527595, No Iterations 8
time step continuity errors : sum local = 0.00820733, global = 1.01652e-17, cumulative = -1.37237e-16
Pressure gradient source: uncorrected Ubar = 1.00033, pressure gradient = 2.36824
smoothSolver:  Solving for omega, Initial residual = 0.00118585, Final residual = 0.000105914, No Iterations 4
smoothSolver:  Solving for k, Initial residual = 0.0368103, Final residual = 0.0031433, No Iterations 5
ExecutionTime = 0.058249 s  ClockTime = 0 s

Time = 18s

smoothSolver:  Solving for Ux, Initial residual = 0.0132508, Final residual = 0.000956833, No Iterations 5
smoothSolver:  Solving for Uy, Initial residual = 0.206102, Final residual = 0.0118666, No Iterations 4
Pressure gradient source: uncorrected Ubar = 1.00364, pressure gradient = 1.78628
GAMG:  Solving for p, Initial residual = 0.0485888, Final residual = 0.00438878, No Iterations 10
time step continuity errors : sum local = 0.00477283, global = -3.48673e-17, cumulative = -1.72105e-16
Pressure gradient source: uncorrected Ubar = 1.00043, pressure gradient = 2.30012
smoothSolver:  Solving for omega, Initial residual = 0.00115783, Final residual = 0.000107401, No Iterations 4
smoothSolver:  Solving for k, Initial residual = 0.033091, Final residual = 0.00301264, No Iterations 5
ExecutionTime = 0.061057 s  ClockTime = 0 s

Time = 19s

smoothSolver:  Solving for Ux, Initial residual = 0.0125092, Final residual = 0.000914844, No Iterations 5
smoothSolver:  Solving for Uy, Initial residual = 0.210374, Final residual = 0.0149013, No Iterations 4
Pressure gradient source: uncorrected Ubar = 1.00482, pressure gradient = 1.46975
GAMG:  Solving for p, Initial residual = 0.0555409, Final residual = 0.00503959, No Iterations 10
time step continuity errors : sum local = 0.00411866, global = -1.29384e-18, cumulative = -1.73398e-16
Pressure gradient source: uncorrected Ubar = 1.00058, pressure gradient = 2.20036
smoothSolver:  Solving for omega, Initial residual = 0.00100515, Final residual = 6.80511e-05, No Iterations 5
smoothSolver:  Solving for k, Initial residual = 0.0299373, Final residual = 0.0028497, No Iterations 5
ExecutionTime = 0.063875 s  ClockTime = 0 s

Time = 20s

smoothSolver:  Solving for Ux, Initial residual = 0.0118754, Final residual = 0.000879072, No Iterations 5
smoothSolver:  Solving for Uy, Initial residual = 0.245356, Final residual = 0.0190683, No Iterations 4
Pressure gradient source: uncorrected Ubar = 1.00444, pressure gradient = 1.38567
GAMG:  Solving for p, Initial residual = 0.0650633, Final residual = 0.0061239, No Iterations 11
time step continuity errors : sum local = 0.00400588, global = -4.37154e-18, cumulative = -1.7777e-16
Pressure gradient source: uncorrected Ubar = 1.00049, pressure gradient = 2.10971
smoothSolver:  Solving for omega, Initial residual = 0.000918761, Final residual = 6.43037e-05, No Iterations 5
smoothSolver:  Solving for k, Initial residual = 0.0275626, Final residual = 0.00274899, No Iterations 5
ExecutionTime = 0.066745 s  ClockTime = 0 s

Time = 21s

smoothSolver:  Solving for Ux, Initial residual = 0.011328, Final residual = 0.000847045, No Iterations 5
smoothSolver:  Solving for Uy, Initial residual = 0.275513, Final residual = 0.020535, No Iterations 4
Pressure gradient source: uncorrected Ubar = 1.00413, pressure gradient = 1.30183
GAMG:  Solving for p, Initial residual = 0.076362, Final residual = 0.00682583, No Iterations 13
time step continuity errors : sum local = 0.0028658, global = -2.07889e-17, cumulative = -1.98559e-16
Pressure gradient source: uncorrected Ubar = 1.00044, pressure gradient = 2.02346
smoothSolver:  Solving for omega, Initial residual = 0.000833666, Final residual = 6.29428e-05, No Iterations 5
smoothSolver:  Solving for k, Initial residual = 0.0250606, Final residual = 0.00164568, No Iterations 6
ExecutionTime = 0.069739 s  ClockTime = 0 s

Time = 22s

smoothSolver:  Solving for Ux, Initial residual = 0.0108425, Final residual = 0.000821023, No Iterations 5
smoothSolver:  Solving for Uy, Initial residual = 0.242681, Final residual = 0.0185824, No Iterations 4
Pressure gradient source: uncorrected Ubar = 1.00403, pressure gradient = 1.185
GAMG:  Solving for p, Initial residual = 0.16381, Final residual = 0.014856, No Iterations 13
time step continuity errors : sum local = 0.00215766, global = -3.06626e-18, cumulative = -2.01625e-16
Pressure gradient source: uncorrected Ubar = 1.00042, pressure gradient = 1.93617
smoothSolver:  Solving for omega, Initial residual = 0.00077765, Final residual = 6.57883e-05, No Iterations 5
smoothSolver:  Solving for k, Initial residual = 0.0228203, Final residual = 0.00154033, No Iterations 6
ExecutionTime = 0.072735 s  ClockTime = 0 s

Time = 23s

smoothSolver:  Solving for Ux, Initial residual = 0.0104123, Final residual = 0.000795041, No Iterations 5
smoothSolver:  Solving for Uy, Initial residual = 0.178871, Final residual = 0.0157429, No Iterations 4
Pressure gradient source: uncorrected Ubar = 1.00307, pressure gradient = 1.26349
GAMG:  Solving for p, Initial residual = 0.0664184, Final residual = 0.00589781, No Iterations 15
time step continuity errors : sum local = 0.00159024, global = 3.23905e-18, cumulative = -1.98386e-16
Pressure gradient source: uncorrected Ubar = 1.0003, pressure gradient = 1.87133
smoothSolver:  Solving for omega, Initial residual = 0.000709158, Final residual = 6.05231e-05, No Iterations 5
smoothSolver:  Solving for k, Initial residual = 0.0207962, Final residual = 0.0014345, No Iterations 6
ExecutionTime = 0.075767 s  ClockTime = 0 s

Time = 24s

smoothSolver:  Solving for Ux, Initial residual = 0.0100256, Final residual = 0.000774107, No Iterations 5
smoothSolver:  Solving for Uy, Initial residual = 0.138124, Final residual = 0.0126973, No Iterations 4
Pressure gradient source: uncorrected Ubar = 1.00292, pressure gradient = 1.19628
GAMG:  Solving for p, Initial residual = 0.0369641, Final residual = 0.00345225, No Iterations 13
time step continuity errors : sum local = 0.00111158, global = 5.06526e-18, cumulative = -1.93321e-16
Pressure gradient source: uncorrected Ubar = 1.00027, pressure gradient = 1.80808
smoothSolver:  Solving for omega, Initial residual = 0.000666365, Final residual = 5.94534e-05, No Iterations 5
smoothSolver:  Solving for k, Initial residual = 0.0192173, Final residual = 0.00136605, No Iterations 6
ExecutionTime = 0.078724 s  ClockTime = 0 s

Time = 25s

smoothSolver:  Solving for Ux, Initial residual = 0.00968807, Final residual = 0.000754486, No Iterations 5
smoothSolver:  Solving for Uy, Initial residual = 0.090263, Final residual = 0.00830576, No Iterations 4
Pressure gradient source: uncorrected Ubar = 1.00236, pressure gradient = 1.23678
GAMG:  Solving for p, Initial residual = 0.0258908, Final residual = 0.0021717, No Iterations 11
time step continuity errors : sum local = 0.000688193, global = -2.62236e-18, cumulative = -1.95943e-16
Pressure gradient source: uncorrected Ubar = 1.0002, pressure gradient = 1.75876
smoothSolver:  Solving for omega, Initial residual = 0.000628922, Final residual = 5.82447e-05, No Iterations 5
smoothSolver:  Solving for k, Initial residual = 0.0176135, Final residual = 0.00127161, No Iterations 6
ExecutionTime = 0.081607 s  ClockTime = 0 s

Time = 26s

smoothSolver:  Solving for Ux, Initial residual = 0.00937452, Final residual = 0.000735296, No Iterations 5
smoothSolver:  Solving for Uy, Initial residual = 0.0548393, Final residual = 0.0050259, No Iterations 4
Pressure gradient source: uncorrected Ubar = 1.00196, pressure gradient = 1.26182
GAMG:  Solving for p, Initial residual = 0.0200621, Final residual = 0.00164725, No Iterations 9
time step continuity errors : sum local = 0.00042871, global = 1.67069e-17, cumulative = -1.79236e-16
Pressure gradient source: uncorrected Ubar = 1.00016, pressure gradient = 1.71918
smoothSolver:  Solving for omega, Initial residual = 0.000595294, Final residual = 3.83341e-05, No Iterations 6
smoothSolver:  Solving for k, Initial residual = 0.0162277, Final residual = 0.00119435, No Iterations 6
ExecutionTime = 0.084399 s  ClockTime = 0 s

Time = 27s

smoothSolver:  Solving for Ux, Initial residual = 0.00907975, Final residual = 0.000719041, No Iterations 5
smoothSolver:  Solving for Uy, Initial residual = 0.0358608, Final residual = 0.00229858, No Iterations 5
Pressure gradient source: uncorrected Ubar = 1.00164, pressure gradient = 1.28499
GAMG:  Solving for p, Initial residual = 0.0182771, Final residual = 0.000822258, No Iterations 5
time step continuity errors : sum local = 0.000136997, global = -2.78335e-17, cumulative = -2.0707e-16
Pressure gradient source: uncorrected Ubar = 1.00012, pressure gradient = 1.68797
smoothSolver:  Solving for omega, Initial residual = 0.00055902, Final residual = 3.63e-05, No Iterations 6
smoothSolver:  Solving for k, Initial residual = 0.0150241, Final residual = 0.00111685, No Iterations 6
ExecutionTime = 0.086999 s  ClockTime = 0 s

Time = 28s

smoothSolver:  Solving for Ux, Initial residual = 0.00882064, Final residual = 0.000701597, No Iterations 5
smoothSolver:  Solving for Uy, Initial residual = 0.0281488, Final residual = 0.0019435, No Iterations 5
Pressure gradient source: uncorrected Ubar = 1.00141, pressure gradient = 1.29869
GAMG:  Solving for p, Initial residual = 0.0203828, Final residual = 0.00180683, No Iterations 6
time step continuity errors : sum local = 0.00029923, global = 1.27665e-17, cumulative = -1.94303e-16
Pressure gradient source: uncorrected Ubar = 1.00009, pressure gradient = 1.66283
smoothSolver:  Solving for omega, Initial residual = 0.000533538, Final residual = 3.48785e-05, No Iterations 6
smoothSolver:  Solving for k, Initial residual = 0.0138663, Final residual = 0.00103902, No Iterations 6
ExecutionTime = 0.089664 s  ClockTime = 0 s

Time = 29s

smoothSolver:  Solving for Ux, Initial residual = 0.00856944, Final residual = 0.000677693, No Iterations 5
smoothSolver:  Solving for Uy, Initial residual = 0.0272992, Final residual = 0.00222145, No Iterations 5
Pressure gradient source: uncorrected Ubar = 1.00108, pressure gradient = 1.35466
GAMG:  Solving for p, Initial residual = 0.0245201, Final residual = 0.00221828, No Iterations 10
time step continuity errors : sum local = 0.000280678, global = -6.98633e-18, cumulative = -2.0129e-16
Pressure gradient source: uncorrected Ubar = 1.00005, pressure gradient = 1.648
smoothSolver:  Solving for omega, Initial residual = 0.000507769, Final residual = 3.60127e-05, No Iterations 6
smoothSolver:  Solving for k, Initial residual = 0.0124725, Final residual = 0.000945769, No Iterations 6
ExecutionTime = 0.092527 s  ClockTime = 0 s

Time = 30s

smoothSolver:  Solving for Ux, Initial residual = 0.00826917, Final residual = 0.0006519, No Iterations 5
smoothSolver:  Solving for Uy, Initial residual = 0.031887, Final residual = 0.00287941, No Iterations 5
Pressure gradient source: uncorrected Ubar = 1.00094, pressure gradient = 1.37016
GAMG:  Solving for p, Initial residual = 0.0308303, Final residual = 0.00297064, No Iterations 10
time step continuity errors : sum local = 0.000232336, global = 5.35325e-18, cumulative = -1.95937e-16
Pressure gradient source: uncorrected Ubar = 1.00004, pressure gradient = 1.63707
smoothSolver:  Solving for omega, Initial residual = 0.000483895, Final residual = 3.31805e-05, No Iterations 6
smoothSolver:  Solving for k, Initial residual = 0.0111293, Final residual = 0.000846707, No Iterations 6
ExecutionTime = 0.095358 s  ClockTime = 0 s

Time = 31s

smoothSolver:  Solving for Ux, Initial residual = 0.00796247, Final residual = 0.00062792, No Iterations 5
smoothSolver:  Solving for Uy, Initial residual = 0.0333329, Final residual = 0.0031224, No Iterations 5
Pressure gradient source: uncorrected Ubar = 1.00082, pressure gradient = 1.38612
GAMG:  Solving for p, Initial residual = 0.0479826, Final residual = 0.00475956, No Iterations 16
time step continuity errors : sum local = 0.00018263, global = 2.75794e-17, cumulative = -1.68357e-16
Pressure gradient source: uncorrected Ubar = 1.00002, pressure gradient = 1.6295
smoothSolver:  Solving for omega, Initial residual = 0.000465619, Final residual = 3.23989e-05, No Iterations 6
smoothSolver:  Solving for k, Initial residual = 0.00987555, Final residual = 0.000750899, No Iterations 6
ExecutionTime = 0.098453 s  ClockTime = 0 s

Time = 32s

smoothSolver:  Solving for Ux, Initial residual = 0.00766529, Final residual = 0.000605959, No Iterations 5
smoothSolver:  Solving for Uy, Initial residual = 0.0306149, Final residual = 0.00301894, No Iterations 5
Pressure gradient source: uncorrected Ubar = 1.00072, pressure gradient = 1.39949
GAMG:  Solving for p, Initial residual = 0.0407927, Final residual = 0.00386435, No Iterations 9
time step continuity errors : sum local = 0.000148727, global = 1.91429e-17, cumulative = -1.49214e-16
Pressure gradient source: uncorrected Ubar = 1.00002, pressure gradient = 1.62448
smoothSolver:  Solving for omega, Initial residual = 0.000450091, Final residual = 3.31416e-05, No Iterations 6
smoothSolver:  Solving for k, Initial residual = 0.00896632, Final residual = 0.00067827, No Iterations 6
ExecutionTime = 0.101262 s  ClockTime = 0 s

Time = 33s

smoothSolver:  Solving for Ux, Initial residual = 0.00740106, Final residual = 0.000586327, No Iterations 5
smoothSolver:  Solving for Uy, Initial residual = 0.0312492, Final residual = 0.00201106, No Iterations 6
Pressure gradient source: uncorrected Ubar = 1.00069, pressure gradient = 1.39752
GAMG:  Solving for p, Initial residual = 0.0288138, Final residual = 0.00255373, No Iterations 13
time step continuity errors : sum local = 0.000119249, global = 1.29393e-17, cumulative = -1.36275e-16
Pressure gradient source: uncorrected Ubar = 1.00001, pressure gradient = 1.61976
smoothSolver:  Solving for omega, Initial residual = 0.00043443, Final residual = 3.11789e-05, No Iterations 6
smoothSolver:  Solving for k, Initial residual = 0.00836553, Final residual = 0.000605249, No Iterations 6
ExecutionTime = 0.10426 s  ClockTime = 0 s

Time = 34s

smoothSolver:  Solving for Ux, Initial residual = 0.00715924, Final residual = 0.000568473, No Iterations 5
smoothSolver:  Solving for Uy, Initial residual = 0.0265672, Final residual = 0.0017468, No Iterations 6
Pressure gradient source: uncorrected Ubar = 1.00064, pressure gradient = 1.40132
GAMG:  Solving for p, Initial residual = 0.0231797, Final residual = 0.00175926, No Iterations 11
time step continuity errors : sum local = 8.08706e-05, global = 1.38507e-17, cumulative = -1.22424e-16
Pressure gradient source: uncorrected Ubar = 1.00001, pressure gradient = 1.61599
smoothSolver:  Solving for omega, Initial residual = 0.000422083, Final residual = 3.02433e-05, No Iterations 6
smoothSolver:  Solving for k, Initial residual = 0.00792421, Final residual = 0.000564308, No Iterations 6
ExecutionTime = 0.107164 s  ClockTime = 0 s

Time = 35s

smoothSolver:  Solving for Ux, Initial residual = 0.00694834, Final residual = 0.000553508, No Iterations 5
smoothSolver:  Solving for Uy, Initial residual = 0.0252924, Final residual = 0.00167844, No Iterations 6
Pressure gradient source: uncorrected Ubar = 1.00061, pressure gradient = 1.40288
GAMG:  Solving for p, Initial residual = 0.0202578, Final residual = 0.0014515, No Iterations 9
time step continuity errors : sum local = 5.14981e-05, global = 2.58852e-18, cumulative = -1.19836e-16
Pressure gradient source: uncorrected Ubar = 1.00001, pressure gradient = 1.61282
smoothSolver:  Solving for omega, Initial residual = 0.000410603, Final residual = 3.07697e-05, No Iterations 6
smoothSolver:  Solving for k, Initial residual = 0.00767582, Final residual = 0.000558287, No Iterations 6
ExecutionTime = 0.109978 s  ClockTime = 0 s

Time = 36s

smoothSolver:  Solving for Ux, Initial residual = 0.00675195, Final residual = 0.000539827, No Iterations 5
smoothSolver:  Solving for Uy, Initial residual = 0.0229313, Final residual = 0.00152239, No Iterations 6
Pressure gradient source: uncorrected Ubar = 1.00058, pressure gradient = 1.40239
GAMG:  Solving for p, Initial residual = 0.0229505, Final residual = 0.00220394, No Iterations 8
time step continuity errors : sum local = 6.21651e-05, global = -1.15042e-18, cumulative = -1.20986e-16
Pressure gradient source: uncorrected Ubar = 1.00001, pressure gradient = 1.60991
smoothSolver:  Solving for omega, Initial residual = 0.00039672, Final residual = 2.87447e-05, No Iterations 6
smoothSolver:  Solving for k, Initial residual = 0.00747495, Final residual = 0.000547742, No Iterations 6
ExecutionTime = 0.112771 s  ClockTime = 0 s

Time = 37s

smoothSolver:  Solving for Ux, Initial residual = 0.00657105, Final residual = 0.000527591, No Iterations 5
smoothSolver:  Solving for Uy, Initial residual = 0.021655, Final residual = 0.00214167, No Iterations 5
Pressure gradient source: uncorrected Ubar = 1.00059, pressure gradient = 1.39115
GAMG:  Solving for p, Initial residual = 0.0262834, Final residual = 0.00231493, No Iterations 10
time step continuity errors : sum local = 6.21256e-05, global = -1.21973e-18, cumulative = -1.22206e-16
Pressure gradient source: uncorrected Ubar = 1.00001, pressure gradient = 1.60593
smoothSolver:  Solving for omega, Initial residual = 0.000385261, Final residual = 2.79793e-05, No Iterations 6
smoothSolver:  Solving for k, Initial residual = 0.00733287, Final residual = 0.000540759, No Iterations 6
ExecutionTime = 0.115629 s  ClockTime = 0 s

Time = 38s

smoothSolver:  Solving for Ux, Initial residual = 0.0064039, Final residual = 0.000516435, No Iterations 5
smoothSolver:  Solving for Uy, Initial residual = 0.0196632, Final residual = 0.00195915, No Iterations 5
Pressure gradient source: uncorrected Ubar = 1.00061, pressure gradient = 1.37344
GAMG:  Solving for p, Initial residual = 0.0341527, Final residual = 0.00298635, No Iterations 14
time step continuity errors : sum local = 5.75483e-05, global = -1.1147e-17, cumulative = -1.33353e-16
Pressure gradient source: uncorrected Ubar = 1.00002, pressure gradient = 1.60015
smoothSolver:  Solving for omega, Initial residual = 0.000374511, Final residual = 2.86757e-05, No Iterations 6
smoothSolver:  Solving for k, Initial residual = 0.00718628, Final residual = 0.000530055, No Iterations 6
ExecutionTime = 0.11864 s  ClockTime = 0 s

Time = 39s

smoothSolver:  Solving for Ux, Initial residual = 0.00625371, Final residual = 0.000506289, No Iterations 5
smoothSolver:  Solving for Uy, Initial residual = 0.0190573, Final residual = 0.00189936, No Iterations 5
Pressure gradient source: uncorrected Ubar = 1.0006, pressure gradient = 1.36725
GAMG:  Solving for p, Initial residual = 0.0226266, Final residual = 0.00220935, No Iterations 16
time step continuity errors : sum local = 5.29825e-05, global = -1.32849e-17, cumulative = -1.46638e-16
Pressure gradient source: uncorrected Ubar = 1.00002, pressure gradient = 1.59424
smoothSolver:  Solving for omega, Initial residual = 0.000360916, Final residual = 2.70192e-05, No Iterations 6
smoothSolver:  Solving for k, Initial residual = 0.00712442, Final residual = 0.000533786, No Iterations 6
ExecutionTime = 0.121768 s  ClockTime = 0 s

Time = 40s

smoothSolver:  Solving for Ux, Initial residual = 0.00611163, Final residual = 0.000497305, No Iterations 5
smoothSolver:  Solving for Uy, Initial residual = 0.0187756, Final residual = 0.00186212, No Iterations 5
Pressure gradient source: uncorrected Ubar = 1.00057, pressure gradient = 1.36732
GAMG:  Solving for p, Initial residual = 0.0159861, Final residual = 0.00145822, No Iterations 16
time step continuity errors : sum local = 4.67769e-05, global = -1.62258e-17, cumulative = -1.62863e-16
Pressure gradient source: uncorrected Ubar = 1.00001, pressure gradient = 1.58907
smoothSolver:  Solving for omega, Initial residual = 0.000350697, Final residual = 2.59913e-05, No Iterations 6
smoothSolver:  Solving for k, Initial residual = 0.00706484, Final residual = 0.00053521, No Iterations 6
ExecutionTime = 0.124904 s  ClockTime = 0 s

Time = 41s

smoothSolver:  Solving for Ux, Initial residual = 0.0059786, Final residual = 0.000488975, No Iterations 5
smoothSolver:  Solving for Uy, Initial residual = 0.0184861, Final residual = 0.00119978, No Iterations 6
Pressure gradient source: uncorrected Ubar = 1.00054, pressure gradient = 1.36492
GAMG:  Solving for p, Initial residual = 0.01195, Final residual = 0.0011004, No Iterations 19
time step continuity errors : sum local = 4.23975e-05, global = 1.55278e-17, cumulative = -1.47336e-16
Pressure gradient source: uncorrected Ubar = 1.00001, pressure gradient = 1.58429
smoothSolver:  Solving for omega, Initial residual = 0.000340544, Final residual = 2.64496e-05, No Iterations 6
smoothSolver:  Solving for k, Initial residual = 0.00698039, Final residual = 0.000524963, No Iterations 6
ExecutionTime = 0.128142 s  ClockTime = 0 s

Time = 42s

smoothSolver:  Solving for Ux, Initial residual = 0.00585317, Final residual = 0.000481056, No Iterations 5
smoothSolver:  Solving for Uy, Initial residual = 0.0175709, Final residual = 0.00114807, No Iterations 6
Pressure gradient source: uncorrected Ubar = 1.00052, pressure gradient = 1.3665
GAMG:  Solving for p, Initial residual = 0.0119913, Final residual = 0.00106167, No Iterations 15
time step continuity errors : sum local = 4.43633e-05, global = -3.92837e-17, cumulative = -1.86619e-16
Pressure gradient source: uncorrected Ubar = 1.00001, pressure gradient = 1.58035
smoothSolver:  Solving for omega, Initial residual = 0.000328658, Final residual = 2.4994e-05, No Iterations 6
smoothSolver:  Solving for k, Initial residual = 0.00691587, Final residual = 0.000527442, No Iterations 6
ExecutionTime = 0.131239 s  ClockTime = 0 s

Time = 43s

smoothSolver:  Solving for Ux, Initial residual = 0.00573552, Final residual = 0.000473379, No Iterations 5
smoothSolver:  Solving for Uy, Initial residual = 0.0173195, Final residual = 0.00115419, No Iterations 6
Pressure gradient source: uncorrected Ubar = 1.00048, pressure gradient = 1.37274
GAMG:  Solving for p, Initial residual = 0.00938266, Final residual = 0.000839076, No Iterations 17
time step continuity errors : sum local = 3.63311e-05, global = -2.19382e-18, cumulative = -1.88813e-16
Pressure gradient source: uncorrected Ubar = 1.00001, pressure gradient = 1.57784
smoothSolver:  Solving for omega, Initial residual = 0.000319088, Final residual = 2.42376e-05, No Iterations 6
smoothSolver:  Solving for k, Initial residual = 0.00687967, Final residual = 0.000529137, No Iterations 6
ExecutionTime = 0.134424 s  ClockTime = 0 s

Time = 44s

smoothSolver:  Solving for Ux, Initial residual = 0.00562389, Final residual = 0.000466518, No Iterations 5
smoothSolver:  Solving for Uy, Initial residual = 0.0177822, Final residual = 0.00120483, No Iterations 6
Pressure gradient source: uncorrected Ubar = 1.00043, pressure gradient = 1.38648
GAMG:  Solving for p, Initial residual = 0.00901353, Final residual = 0.000870701, No Iterations 13
time step continuity errors : sum local = 3.66457e-05, global = -2.33764e-17, cumulative = -2.1219e-16
Pressure gradient source: uncorrected Ubar = 1, pressure gradient = 1.57756
smoothSolver:  Solving for omega, Initial residual = 0.000310964, Final residual = 2.42035e-05, No Iterations 6
smoothSolver:  Solving for k, Initial residual = 0.00682571, Final residual = 0.000525135, No Iterations 6
ExecutionTime = 0.137409 s  ClockTime = 0 s

Time = 45s

smoothSolver:  Solving for Ux, Initial residual = 0.00551955, Final residual = 0.0004599, No Iterations 5
smoothSolver:  Solving for Uy, Initial residual = 0.017776, Final residual = 0.00125018, No Iterations 6
Pressure gradient source: uncorrected Ubar = 1.00041, pressure gradient = 1.39018
GAMG:  Solving for p, Initial residual = 0.00801091, Final residual = 0.000717547, No Iterations 13
time step continuity errors : sum local = 3.00122e-05, global = 1.92209e-17, cumulative = -1.92969e-16
Pressure gradient source: uncorrected Ubar = 0.999999, pressure gradient = 1.57801
smoothSolver:  Solving for omega, Initial residual = 0.000301193, Final residual = 2.3049e-05, No Iterations 6
smoothSolver:  Solving for k, Initial residual = 0.0068095, Final residual = 0.000526696, No Iterations 6
ExecutionTime = 0.140543 s  ClockTime = 0 s

Time = 46s

smoothSolver:  Solving for Ux, Initial residual = 0.00541707, Final residual = 0.000453312, No Iterations 5
smoothSolver:  Solving for Uy, Initial residual = 0.0172068, Final residual = 0.00122269, No Iterations 6
Pressure gradient source: uncorrected Ubar = 1.00032, pressure gradient = 1.4263
GAMG:  Solving for p, Initial residual = 0.00693312, Final residual = 0.000687491, No Iterations 13
time step continuity errors : sum local = 2.76097e-05, global = 7.75035e-18, cumulative = -1.85218e-16
Pressure gradient source: uncorrected Ubar = 0.999989, pressure gradient = 1.58336
smoothSolver:  Solving for omega, Initial residual = 0.000293383, Final residual = 2.2495e-05, No Iterations 6
smoothSolver:  Solving for k, Initial residual = 0.00676021, Final residual = 0.000523533, No Iterations 6
ExecutionTime = 0.143551 s  ClockTime = 0 s

Time = 47s

smoothSolver:  Solving for Ux, Initial residual = 0.00531887, Final residual = 0.000446894, No Iterations 5
smoothSolver:  Solving for Uy, Initial residual = 0.0175612, Final residual = 0.00124632, No Iterations 6
Pressure gradient source: uncorrected Ubar = 1.0003, pressure gradient = 1.4408
GAMG:  Solving for p, Initial residual = 0.00621869, Final residual = 0.000564573, No Iterations 15
time step continuity errors : sum local = 2.21341e-05, global = 3.42947e-17, cumulative = -1.50924e-16
Pressure gradient source: uncorrected Ubar = 0.999986, pressure gradient = 1.59026
smoothSolver:  Solving for omega, Initial residual = 0.00028564, Final residual = 2.23172e-05, No Iterations 6
smoothSolver:  Solving for k, Initial residual = 0.00672401, Final residual = 0.000525025, No Iterations 6
ExecutionTime = 0.146631 s  ClockTime = 0 s

Time = 48s

smoothSolver:  Solving for Ux, Initial residual = 0.00522728, Final residual = 0.000441001, No Iterations 5
smoothSolver:  Solving for Uy, Initial residual = 0.0174263, Final residual = 0.00125665, No Iterations 6
Pressure gradient source: uncorrected Ubar = 1.00027, pressure gradient = 1.45407
GAMG:  Solving for p, Initial residual = 0.00569716, Final residual = 0.000509482, No Iterations 11
time step continuity errors : sum local = 1.91536e-05, global = -6.27398e-18, cumulative = -1.57198e-16
Pressure gradient source: uncorrected Ubar = 0.999984, pressure gradient = 1.59843
smoothSolver:  Solving for omega, Initial residual = 0.000277813, Final residual = 2.13253e-05, No Iterations 6
smoothSolver:  Solving for k, Initial residual = 0.00668231, Final residual = 0.000523253, No Iterations 6
ExecutionTime = 0.149537 s  ClockTime = 0 s

Time = 49s

smoothSolver:  Solving for Ux, Initial residual = 0.00513839, Final residual = 0.000435349, No Iterations 5
smoothSolver:  Solving for Uy, Initial residual = 0.0176596, Final residual = 0.00129599, No Iterations 6
Pressure gradient source: uncorrected Ubar = 1.00025, pressure gradient = 1.47101
GAMG:  Solving for p, Initial residual = 0.00539365, Final residual = 0.000448823, No Iterations 9
time step continuity errors : sum local = 1.57745e-05, global = -3.29894e-17, cumulative = -1.90187e-16
Pressure gradient source: uncorrected Ubar = 0.999981, pressure gradient = 1.60821
smoothSolver:  Solving for omega, Initial residual = 0.000270678, Final residual = 2.05731e-05, No Iterations 6
smoothSolver:  Solving for k, Initial residual = 0.00664248, Final residual = 0.00052298, No Iterations 6
ExecutionTime = 0.152381 s  ClockTime = 0 s

Time = 50s

smoothSolver:  Solving for Ux, Initial residual = 0.00505162, Final residual = 0.000429785, No Iterations 5
smoothSolver:  Solving for Uy, Initial residual = 0.0180495, Final residual = 0.00134427, No Iterations 6
Pressure gradient source: uncorrected Ubar = 1.00022, pressure gradient = 1.49002
GAMG:  Solving for p, Initial residual = 0.00622669, Final residual = 0.000478397, No Iterations 7
time step continuity errors : sum local = 1.60157e-05, global = 1.11546e-17, cumulative = -1.79033e-16
Pressure gradient source: uncorrected Ubar = 0.999978, pressure gradient = 1.61973
smoothSolver:  Solving for omega, Initial residual = 0.000264258, Final residual = 2.06117e-05, No Iterations 6
smoothSolver:  Solving for k, Initial residual = 0.00658303, Final residual = 0.00051684, No Iterations 6
ExecutionTime = 0.155193 s  ClockTime = 0 s

Time = 51s

smoothSolver:  Solving for Ux, Initial residual = 0.00496866, Final residual = 0.000424181, No Iterations 5
smoothSolver:  Solving for Uy, Initial residual = 0.0176961, Final residual = 0.00130524, No Iterations 6
Pressure gradient source: uncorrected Ubar = 1.00024, pressure gradient = 1.48934
GAMG:  Solving for p, Initial residual = 0.00710327, Final residual = 0.000669273, No Iterations 7
time step continuity errors : sum local = 1.95811e-05, global = 2.18204e-17, cumulative = -1.57212e-16
Pressure gradient source: uncorrected Ubar = 0.999981, pressure gradient = 1.63017
smoothSolver:  Solving for omega, Initial residual = 0.000256979, Final residual = 1.97362e-05, No Iterations 6
smoothSolver:  Solving for k, Initial residual = 0.00658239, Final residual = 0.000521332, No Iterations 6
ExecutionTime = 0.157945 s  ClockTime = 0 s

Time = 52s

smoothSolver:  Solving for Ux, Initial residual = 0.00488961, Final residual = 0.00041871, No Iterations 5
smoothSolver:  Solving for Uy, Initial residual = 0.0182595, Final residual = 0.00135563, No Iterations 6
Pressure gradient source: uncorrected Ubar = 1.00019, pressure gradient = 1.52111
GAMG:  Solving for p, Initial residual = 0.0077694, Final residual = 0.000658311, No Iterations 9
time step continuity errors : sum local = 1.73958e-05, global = -1.30909e-17, cumulative = -1.70303e-16
Pressure gradient source: uncorrected Ubar = 0.999975, pressure gradient = 1.64397
smoothSolver:  Solving for omega, Initial residual = 0.000250405, Final residual = 1.91299e-05, No Iterations 6
smoothSolver:  Solving for k, Initial residual = 0.00654302, Final residual = 0.000521127, No Iterations 6
ExecutionTime = 0.160771 s  ClockTime = 0 s

Time = 53s

smoothSolver:  Solving for Ux, Initial residual = 0.00481441, Final residual = 0.000413821, No Iterations 5
smoothSolver:  Solving for Uy, Initial residual = 0.0188393, Final residual = 0.00140266, No Iterations 6
Pressure gradient source: uncorrected Ubar = 1.00021, pressure gradient = 1.52509
GAMG:  Solving for p, Initial residual = 0.00709032, Final residual = 0.000684151, No Iterations 11
time step continuity errors : sum local = 1.66929e-05, global = 7.38105e-18, cumulative = -1.62922e-16
Pressure gradient source: uncorrected Ubar = 0.999977, pressure gradient = 1.65709
smoothSolver:  Solving for omega, Initial residual = 0.000243626, Final residual = 1.84225e-05, No Iterations 6
smoothSolver:  Solving for k, Initial residual = 0.00650523, Final residual = 0.000514819, No Iterations 6
ExecutionTime = 0.163689 s  ClockTime = 0 s

Time = 54s

smoothSolver:  Solving for Ux, Initial residual = 0.00474071, Final residual = 0.000408982, No Iterations 5
smoothSolver:  Solving for Uy, Initial residual = 0.0199534, Final residual = 0.0014783, No Iterations 6
Pressure gradient source: uncorrected Ubar = 1.0002, pressure gradient = 1.54055
GAMG:  Solving for p, Initial residual = 0.00677731, Final residual = 0.000636561, No Iterations 11
time step continuity errors : sum local = 1.47958e-05, global = -1.35441e-17, cumulative = -1.76466e-16
Pressure gradient source: uncorrected Ubar = 0.999976, pressure gradient = 1.67116
smoothSolver:  Solving for omega, Initial residual = 0.000237783, Final residual = 1.84427e-05, No Iterations 6
smoothSolver:  Solving for k, Initial residual = 0.00649122, Final residual = 0.000521256, No Iterations 6
ExecutionTime = 0.16659 s  ClockTime = 0 s

Time = 55s

smoothSolver:  Solving for Ux, Initial residual = 0.0046685, Final residual = 0.000404106, No Iterations 5
smoothSolver:  Solving for Uy, Initial residual = 0.0198296, Final residual = 0.0014831, No Iterations 6
Pressure gradient source: uncorrected Ubar = 1.0002, pressure gradient = 1.5472
GAMG:  Solving for p, Initial residual = 0.00674461, Final residual = 0.000640864, No Iterations 9
time step continuity errors : sum local = 1.38362e-05, global = -3.10014e-18, cumulative = -1.79566e-16
Pressure gradient source: uncorrected Ubar = 0.999978, pressure gradient = 1.68487
smoothSolver:  Solving for omega, Initial residual = 0.000231383, Final residual = 1.76196e-05, No Iterations 6
smoothSolver:  Solving for k, Initial residual = 0.00644286, Final residual = 0.000516046, No Iterations 6
ExecutionTime = 0.169394 s  ClockTime = 0 s

Time = 56s

smoothSolver:  Solving for Ux, Initial residual = 0.00459817, Final residual = 0.0003993, No Iterations 5
smoothSolver:  Solving for Uy, Initial residual = 0.0194583, Final residual = 0.00147373, No Iterations 6
Pressure gradient source: uncorrected Ubar = 1.00021, pressure gradient = 1.55139
GAMG:  Solving for p, Initial residual = 0.00756465, Final residual = 0.000621541, No Iterations 8
time step continuity errors : sum local = 1.24872e-05, global = -1.24785e-17, cumulative = -1.92045e-16
Pressure gradient source: uncorrected Ubar = 0.999979, pressure gradient = 1.69796
smoothSolver:  Solving for omega, Initial residual = 0.000225105, Final residual = 1.7081e-05, No Iterations 6
smoothSolver:  Solving for k, Initial residual = 0.00639758, Final residual = 0.000511374, No Iterations 6
ExecutionTime = 0.17217 s  ClockTime = 0 s

Time = 57s

smoothSolver:  Solving for Ux, Initial residual = 0.00453464, Final residual = 0.000395, No Iterations 5
smoothSolver:  Solving for Uy, Initial residual = 0.0195035, Final residual = 0.00146486, No Iterations 6
Pressure gradient source: uncorrected Ubar = 1.00023, pressure gradient = 1.54874
GAMG:  Solving for p, Initial residual = 0.00824056, Final residual = 0.000712287, No Iterations 9
time step continuity errors : sum local = 1.2066e-05, global = -1.79232e-18, cumulative = -1.93837e-16
Pressure gradient source: uncorrected Ubar = 0.999982, pressure gradient = 1.70958
smoothSolver:  Solving for omega, Initial residual = 0.000219496, Final residual = 1.67678e-05, No Iterations 6
smoothSolver:  Solving for k, Initial residual = 0.00639636, Final residual = 0.000518188, No Iterations 6
ExecutionTime = 0.174971 s  ClockTime = 0 s

Time = 58s

smoothSolver:  Solving for Ux, Initial residual = 0.00447315, Final residual = 0.000390916, No Iterations 5
smoothSolver:  Solving for Uy, Initial residual = 0.019824, Final residual = 0.00150008, No Iterations 6
Pressure gradient source: uncorrected Ubar = 1.00024, pressure gradient = 1.54627
GAMG:  Solving for p, Initial residual = 0.00984981, Final residual = 0.000834512, No Iterations 8
time step continuity errors : sum local = 1.23413e-05, global = -2.79182e-18, cumulative = -1.96629e-16
Pressure gradient source: uncorrected Ubar = 0.999985, pressure gradient = 1.71991
smoothSolver:  Solving for omega, Initial residual = 0.000213958, Final residual = 1.64821e-05, No Iterations 6
smoothSolver:  Solving for k, Initial residual = 0.00635087, Final residual = 0.000513834, No Iterations 6
ExecutionTime = 0.177857 s  ClockTime = 0 s

Time = 59s

smoothSolver:  Solving for Ux, Initial residual = 0.00441299, Final residual = 0.000386856, No Iterations 5
smoothSolver:  Solving for Uy, Initial residual = 0.019703, Final residual = 0.00150304, No Iterations 6
Pressure gradient source: uncorrected Ubar = 1.00025, pressure gradient = 1.54547
GAMG:  Solving for p, Initial residual = 0.010683, Final residual = 0.000925705, No Iterations 8
time step continuity errors : sum local = 1.1298e-05, global = 3.07388e-18, cumulative = -1.93555e-16
Pressure gradient source: uncorrected Ubar = 0.999987, pressure gradient = 1.7293
smoothSolver:  Solving for omega, Initial residual = 0.000208512, Final residual = 1.59592e-05, No Iterations 6
smoothSolver:  Solving for k, Initial residual = 0.00632881, Final residual = 0.000513082, No Iterations 6
ExecutionTime = 0.180662 s  ClockTime = 0 s

Time = 60s

smoothSolver:  Solving for Ux, Initial residual = 0.00435469, Final residual = 0.000382926, No Iterations 5
smoothSolver:  Solving for Uy, Initial residual = 0.019515, Final residual = 0.00149171, No Iterations 6
Pressure gradient source: uncorrected Ubar = 1.00026, pressure gradient = 1.54399
GAMG:  Solving for p, Initial residual = 0.0120037, Final residual = 0.00113587, No Iterations 8
time step continuity errors : sum local = 1.08975e-05, global = -4.98987e-18, cumulative = -1.98545e-16
Pressure gradient source: uncorrected Ubar = 0.999988, pressure gradient = 1.73777
smoothSolver:  Solving for omega, Initial residual = 0.000203566, Final residual = 1.56115e-05, No Iterations 6
smoothSolver:  Solving for k, Initial residual = 0.00629221, Final residual = 0.000509373, No Iterations 6
ExecutionTime = 0.183425 s  ClockTime = 0 s

Time = 61s

smoothSolver:  Solving for Ux, Initial residual = 0.00429942, Final residual = 0.000379264, No Iterations 5
smoothSolver:  Solving for Uy, Initial residual = 0.0189747, Final residual = 0.00145424, No Iterations 6
Pressure gradient source: uncorrected Ubar = 1.00027, pressure gradient = 1.53637
GAMG:  Solving for p, Initial residual = 0.0148853, Final residual = 0.00129221, No Iterations 9
time step continuity errors : sum local = 9.07884e-06, global = -3.40592e-18, cumulative = -2.01951e-16
Pressure gradient source: uncorrected Ubar = 0.999991, pressure gradient = 1.74457
smoothSolver:  Solving for omega, Initial residual = 0.00019819, Final residual = 1.50823e-05, No Iterations 6
smoothSolver:  Solving for k, Initial residual = 0.00626003, Final residual = 0.000506264, No Iterations 6
ExecutionTime = 0.186241 s  ClockTime = 0 s

Time = 62s

smoothSolver:  Solving for Ux, Initial residual = 0.00424826, Final residual = 0.000376027, No Iterations 5
smoothSolver:  Solving for Uy, Initial residual = 0.0193454, Final residual = 0.00148062, No Iterations 6
Pressure gradient source: uncorrected Ubar = 1.00029, pressure gradient = 1.52803
GAMG:  Solving for p, Initial residual = 0.0221432, Final residual = 0.00208535, No Iterations 7
time step continuity errors : sum local = 1.0181e-05, global = 1.36753e-17, cumulative = -1.88275e-16
Pressure gradient source: uncorrected Ubar = 0.999993, pressure gradient = 1.74982
smoothSolver:  Solving for omega, Initial residual = 0.000193289, Final residual = 1.48709e-05, No Iterations 6
smoothSolver:  Solving for k, Initial residual = 0.00623174, Final residual = 0.000508182, No Iterations 6
ExecutionTime = 0.188957 s  ClockTime = 0 s

Time = 63s

smoothSolver:  Solving for Ux, Initial residual = 0.00419917, Final residual = 0.000372734, No Iterations 5
smoothSolver:  Solving for Uy, Initial residual = 0.0192214, Final residual = 0.00148892, No Iterations 6
Pressure gradient source: uncorrected Ubar = 1.0003, pressure gradient = 1.51827
GAMG:  Solving for p, Initial residual = 0.0232231, Final residual = 0.00226931, No Iterations 6
time step continuity errors : sum local = 1.02105e-05, global = -1.33111e-17, cumulative = -2.01586e-16
Pressure gradient source: uncorrected Ubar = 0.999995, pressure gradient = 1.75348
smoothSolver:  Solving for omega, Initial residual = 0.000188555, Final residual = 1.44738e-05, No Iterations 6
smoothSolver:  Solving for k, Initial residual = 0.00618919, Final residual = 0.000500497, No Iterations 6
ExecutionTime = 0.191645 s  ClockTime = 0 s

Time = 64s

smoothSolver:  Solving for Ux, Initial residual = 0.00415191, Final residual = 0.000369617, No Iterations 5
smoothSolver:  Solving for Uy, Initial residual = 0.0197777, Final residual = 0.00151781, No Iterations 6
Pressure gradient source: uncorrected Ubar = 1.00031, pressure gradient = 1.5092
GAMG:  Solving for p, Initial residual = 0.0152457, Final residual = 0.00152378, No Iterations 8
time step continuity errors : sum local = 9.9341e-06, global = -4.42405e-18, cumulative = -2.0601e-16
Pressure gradient source: uncorrected Ubar = 0.999997, pressure gradient = 1.7558
smoothSolver:  Solving for omega, Initial residual = 0.000183958, Final residual = 1.39806e-05, No Iterations 6
smoothSolver:  Solving for k, Initial residual = 0.00619132, Final residual = 0.000509124, No Iterations 6
ExecutionTime = 0.194409 s  ClockTime = 0 s

Time = 65s

smoothSolver:  Solving for Ux, Initial residual = 0.00410596, Final residual = 0.000366604, No Iterations 5
smoothSolver:  Solving for Uy, Initial residual = 0.0195874, Final residual = 0.0015157, No Iterations 6
Pressure gradient source: uncorrected Ubar = 1.00032, pressure gradient = 1.49555
GAMG:  Solving for p, Initial residual = 0.0120951, Final residual = 0.00110701, No Iterations 8
time step continuity errors : sum local = 9.03426e-06, global = -1.78444e-17, cumulative = -2.23855e-16
Pressure gradient source: uncorrected Ubar = 0.999999, pressure gradient = 1.75632
smoothSolver:  Solving for omega, Initial residual = 0.000180106, Final residual = 1.39569e-05, No Iterations 6
smoothSolver:  Solving for k, Initial residual = 0.00616105, Final residual = 0.000504237, No Iterations 6
ExecutionTime = 0.197164 s  ClockTime = 0 s

Time = 66s

smoothSolver:  Solving for Ux, Initial residual = 0.00406129, Final residual = 0.000363726, No Iterations 5
smoothSolver:  Solving for Uy, Initial residual = 0.0196365, Final residual = 0.00151884, No Iterations 6
Pressure gradient source: uncorrected Ubar = 1.00032, pressure gradient = 1.48693
GAMG:  Solving for p, Initial residual = 0.00878601, Final residual = 0.000846788, No Iterations 8
time step continuity errors : sum local = 8.26786e-06, global = -2.71576e-17, cumulative = -2.51013e-16
Pressure gradient source: uncorrected Ubar = 1, pressure gradient = 1.75593
smoothSolver:  Solving for omega, Initial residual = 0.000176498, Final residual = 1.36752e-05, No Iterations 6
smoothSolver:  Solving for k, Initial residual = 0.00613539, Final residual = 0.000505463, No Iterations 6
ExecutionTime = 0.199925 s  ClockTime = 0 s

Time = 67s

smoothSolver:  Solving for Ux, Initial residual = 0.00401884, Final residual = 0.000361096, No Iterations 5
smoothSolver:  Solving for Uy, Initial residual = 0.0189817, Final residual = 0.0014803, No Iterations 6
Pressure gradient source: uncorrected Ubar = 1.00033, pressure gradient = 1.47261
GAMG:  Solving for p, Initial residual = 0.00753548, Final residual = 0.000662752, No Iterations 8
time step continuity errors : sum local = 7.36588e-06, global = 5.0462e-18, cumulative = -2.45966e-16
Pressure gradient source: uncorrected Ubar = 1, pressure gradient = 1.75395
smoothSolver:  Solving for omega, Initial residual = 0.000173167, Final residual = 1.33613e-05, No Iterations 6
smoothSolver:  Solving for k, Initial residual = 0.00609031, Final residual = 0.000497177, No Iterations 6
ExecutionTime = 0.202725 s  ClockTime = 0 s

Time = 68s

smoothSolver:  Solving for Ux, Initial residual = 0.00397814, Final residual = 0.000358498, No Iterations 5
smoothSolver:  Solving for Uy, Initial residual = 0.0187825, Final residual = 0.00144783, No Iterations 6
Pressure gradient source: uncorrected Ubar = 1.00034, pressure gradient = 1.45575
GAMG:  Solving for p, Initial residual = 0.00655294, Final residual = 0.000577579, No Iterations 10
time step continuity errors : sum local = 6.97218e-06, global = -6.98209e-18, cumulative = -2.52948e-16
Pressure gradient source: uncorrected Ubar = 1, pressure gradient = 1.75023
smoothSolver:  Solving for omega, Initial residual = 0.000170202, Final residual = 1.30294e-05, No Iterations 6
smoothSolver:  Solving for k, Initial residual = 0.00608765, Final residual = 0.000505657, No Iterations 6
ExecutionTime = 0.205571 s  ClockTime = 0 s

Time = 69s

smoothSolver:  Solving for Ux, Initial residual = 0.00393927, Final residual = 0.000355981, No Iterations 5
smoothSolver:  Solving for Uy, Initial residual = 0.0184476, Final residual = 0.00143493, No Iterations 6
Pressure gradient source: uncorrected Ubar = 1.00035, pressure gradient = 1.43679
GAMG:  Solving for p, Initial residual = 0.00542952, Final residual = 0.000484153, No Iterations 10
time step continuity errors : sum local = 6.36992e-06, global = 1.51018e-17, cumulative = -2.37847e-16
Pressure gradient source: uncorrected Ubar = 1.00001, pressure gradient = 1.74467
smoothSolver:  Solving for omega, Initial residual = 0.000167512, Final residual = 1.29946e-05, No Iterations 6
smoothSolver:  Solving for k, Initial residual = 0.00604312, Final residual = 0.000497868, No Iterations 6
ExecutionTime = 0.208428 s  ClockTime = 0 s

Time = 70s

smoothSolver:  Solving for Ux, Initial residual = 0.00390105, Final residual = 0.00035353, No Iterations 5
smoothSolver:  Solving for Uy, Initial residual = 0.0187815, Final residual = 0.0014547, No Iterations 6
Pressure gradient source: uncorrected Ubar = 1.00035, pressure gradient = 1.42318
GAMG:  Solving for p, Initial residual = 0.00585741, Final residual = 0.000494707, No Iterations 11
time step continuity errors : sum local = 6.62473e-06, global = 1.39345e-17, cumulative = -2.23912e-16
Pressure gradient source: uncorrected Ubar = 1.00001, pressure gradient = 1.73822
smoothSolver:  Solving for omega, Initial residual = 0.000164398, Final residual = 1.26016e-05, No Iterations 6
smoothSolver:  Solving for k, Initial residual = 0.00600562, Final residual = 0.000497102, No Iterations 6
ExecutionTime = 0.211326 s  ClockTime = 0 s

Time = 71s

smoothSolver:  Solving for Ux, Initial residual = 0.00386422, Final residual = 0.000351261, No Iterations 5
smoothSolver:  Solving for Uy, Initial residual = 0.0183644, Final residual = 0.00143897, No Iterations 6
Pressure gradient source: uncorrected Ubar = 1.00035, pressure gradient = 1.40681
GAMG:  Solving for p, Initial residual = 0.00534625, Final residual = 0.000501927, No Iterations 11
time step continuity errors : sum local = 7.04897e-06, global = -1.69288e-17, cumulative = -2.40841e-16
Pressure gradient source: uncorrected Ubar = 1.00001, pressure gradient = 1.73058
smoothSolver:  Solving for omega, Initial residual = 0.000161608, Final residual = 1.25605e-05, No Iterations 6
smoothSolver:  Solving for k, Initial residual = 0.00596728, Final residual = 0.000490982, No Iterations 6
ExecutionTime = 0.214218 s  ClockTime = 0 s

Time = 72s

smoothSolver:  Solving for Ux, Initial residual = 0.00383029, Final residual = 0.000349302, No Iterations 5
smoothSolver:  Solving for Uy, Initial residual = 0.018767, Final residual = 0.00145593, No Iterations 6
Pressure gradient source: uncorrected Ubar = 1.00035, pressure gradient = 1.38993
GAMG:  Solving for p, Initial residual = 0.0048181, Final residual = 0.000433478, No Iterations 13
time step continuity errors : sum local = 6.10442e-06, global = -2.02746e-17, cumulative = -2.61115e-16
Pressure gradient source: uncorrected Ubar = 1.00001, pressure gradient = 1.72182
smoothSolver:  Solving for omega, Initial residual = 0.000158296, Final residual = 1.21093e-05, No Iterations 6
smoothSolver:  Solving for k, Initial residual = 0.00596032, Final residual = 0.000496584, No Iterations 6
ExecutionTime = 0.217229 s  ClockTime = 0 s

Time = 73s

smoothSolver:  Solving for Ux, Initial residual = 0.00379718, Final residual = 0.000347379, No Iterations 5
smoothSolver:  Solving for Uy, Initial residual = 0.0183569, Final residual = 0.00144322, No Iterations 6
Pressure gradient source: uncorrected Ubar = 1.00036, pressure gradient = 1.36768
GAMG:  Solving for p, Initial residual = 0.00448316, Final residual = 0.000433256, No Iterations 8
time step continuity errors : sum local = 6.28956e-06, global = 9.18395e-18, cumulative = -2.51932e-16
Pressure gradient source: uncorrected Ubar = 1.00001, pressure gradient = 1.71133
smoothSolver:  Solving for omega, Initial residual = 0.000155618, Final residual = 1.20475e-05, No Iterations 6
smoothSolver:  Solving for k, Initial residual = 0.00591894, Final residual = 0.000490591, No Iterations 6
ExecutionTime = 0.219989 s  ClockTime = 0 s

Time = 74s

smoothSolver:  Solving for Ux, Initial residual = 0.00376516, Final residual = 0.000345372, No Iterations 5
smoothSolver:  Solving for Uy, Initial residual = 0.0184188, Final residual = 0.00143996, No Iterations 6
Pressure gradient source: uncorrected Ubar = 1.00036, pressure gradient = 1.34683
GAMG:  Solving for p, Initial residual = 0.00447608, Final residual = 0.000397663, No Iterations 8
time step continuity errors : sum local = 6.09482e-06, global = -4.80166e-17, cumulative = -2.99948e-16
Pressure gradient source: uncorrected Ubar = 1.00001, pressure gradient = 1.69953
smoothSolver:  Solving for omega, Initial residual = 0.000152891, Final residual = 1.18258e-05, No Iterations 6
smoothSolver:  Solving for k, Initial residual = 0.00588336, Final residual = 0.000489504, No Iterations 6
ExecutionTime = 0.222766 s  ClockTime = 0 s

Time = 75s

smoothSolver:  Solving for Ux, Initial residual = 0.00373444, Final residual = 0.000343507, No Iterations 5
smoothSolver:  Solving for Uy, Initial residual = 0.0176629, Final residual = 0.00139132, No Iterations 6
Pressure gradient source: uncorrected Ubar = 1.00036, pressure gradient = 1.32721
GAMG:  Solving for p, Initial residual = 0.00405491, Final residual = 0.000376506, No Iterations 11
time step continuity errors : sum local = 5.73647e-06, global = -1.18415e-18, cumulative = -3.01132e-16
Pressure gradient source: uncorrected Ubar = 1.00001, pressure gradient = 1.68672
smoothSolver:  Solving for omega, Initial residual = 0.00014986, Final residual = 1.15842e-05, No Iterations 6
smoothSolver:  Solving for k, Initial residual = 0.00584765, Final residual = 0.000484286, No Iterations 6
ExecutionTime = 0.225672 s  ClockTime = 0 s

Time = 76s

smoothSolver:  Solving for Ux, Initial residual = 0.00370436, Final residual = 0.000341678, No Iterations 5
smoothSolver:  Solving for Uy, Initial residual = 0.0174881, Final residual = 0.0013672, No Iterations 6
Pressure gradient source: uncorrected Ubar = 1.00036, pressure gradient = 1.31118
GAMG:  Solving for p, Initial residual = 0.00468389, Final residual = 0.000422444, No Iterations 13
time step continuity errors : sum local = 6.37194e-06, global = 1.67818e-17, cumulative = -2.8435e-16
Pressure gradient source: uncorrected Ubar = 1.00001, pressure gradient = 1.67352
smoothSolver:  Solving for omega, Initial residual = 0.000147341, Final residual = 1.12815e-05, No Iterations 6
smoothSolver:  Solving for k, Initial residual = 0.00582399, Final residual = 0.000486717, No Iterations 6
ExecutionTime = 0.228666 s  ClockTime = 0 s

Time = 77s

smoothSolver:  Solving for Ux, Initial residual = 0.00367566, Final residual = 0.000340149, No Iterations 5
smoothSolver:  Solving for Uy, Initial residual = 0.0167533, Final residual = 0.00133049, No Iterations 6
Pressure gradient source: uncorrected Ubar = 1.00036, pressure gradient = 1.28802
GAMG:  Solving for p, Initial residual = 0.00358278, Final residual = 0.000328669, No Iterations 13
time step continuity errors : sum local = 4.79194e-06, global = -1.11114e-17, cumulative = -2.95462e-16
Pressure gradient source: uncorrected Ubar = 1.00001, pressure gradient = 1.65898
smoothSolver:  Solving for omega, Initial residual = 0.000145005, Final residual = 1.13108e-05, No Iterations 6
smoothSolver:  Solving for k, Initial residual = 0.00580198, Final residual = 0.000484175, No Iterations 6
ExecutionTime = 0.231663 s  ClockTime = 0 s

Time = 78s

smoothSolver:  Solving for Ux, Initial residual = 0.00364861, Final residual = 0.000338694, No Iterations 5
smoothSolver:  Solving for Uy, Initial residual = 0.0166241, Final residual = 0.00130823, No Iterations 6
Pressure gradient source: uncorrected Ubar = 1.00037, pressure gradient = 1.26238
GAMG:  Solving for p, Initial residual = 0.00378086, Final residual = 0.000325764, No Iterations 9
time step continuity errors : sum local = 4.27494e-06, global = -1.0355e-17, cumulative = -3.05817e-16
Pressure gradient source: uncorrected Ubar = 1.00001, pressure gradient = 1.64292
smoothSolver:  Solving for omega, Initial residual = 0.000142393, Final residual = 1.0954e-05, No Iterations 6
smoothSolver:  Solving for k, Initial residual = 0.00576745, Final residual = 0.000483218, No Iterations 6
ExecutionTime = 0.234473 s  ClockTime = 0 s

Time = 79s

smoothSolver:  Solving for Ux, Initial residual = 0.00362303, Final residual = 0.000337275, No Iterations 5
smoothSolver:  Solving for Uy, Initial residual = 0.0158601, Final residual = 0.00126283, No Iterations 6
Pressure gradient source: uncorrected Ubar = 1.00037, pressure gradient = 1.24045
GAMG:  Solving for p, Initial residual = 0.00410555, Final residual = 0.000332275, No Iterations 4
time step continuity errors : sum local = 4.41513e-06, global = -4.23178e-18, cumulative = -3.10049e-16
Pressure gradient source: uncorrected Ubar = 1.00002, pressure gradient = 1.62606
smoothSolver:  Solving for omega, Initial residual = 0.000140312, Final residual = 1.08917e-05, No Iterations 6
smoothSolver:  Solving for k, Initial residual = 0.00572266, Final residual = 0.000476671, No Iterations 6
ExecutionTime = 0.237064 s  ClockTime = 0 s

Time = 80s

smoothSolver:  Solving for Ux, Initial residual = 0.00359813, Final residual = 0.000335858, No Iterations 5
smoothSolver:  Solving for Uy, Initial residual = 0.015764, Final residual = 0.00124469, No Iterations 6
Pressure gradient source: uncorrected Ubar = 1.00036, pressure gradient = 1.22078
GAMG:  Solving for p, Initial residual = 0.00402196, Final residual = 0.000375495, No Iterations 9
time step continuity errors : sum local = 5.24358e-06, global = -2.34768e-17, cumulative = -3.33525e-16
Pressure gradient source: uncorrected Ubar = 1.00002, pressure gradient = 1.60881
smoothSolver:  Solving for omega, Initial residual = 0.000138178, Final residual = 1.06911e-05, No Iterations 6
smoothSolver:  Solving for k, Initial residual = 0.00569768, Final residual = 0.000478352, No Iterations 6
ExecutionTime = 0.239862 s  ClockTime = 0 s

Time = 81s

smoothSolver:  Solving for Ux, Initial residual = 0.00357415, Final residual = 0.000334519, No Iterations 5
smoothSolver:  Solving for Uy, Initial residual = 0.0149435, Final residual = 0.00119501, No Iterations 6
Pressure gradient source: uncorrected Ubar = 1.00037, pressure gradient = 1.19556
GAMG:  Solving for p, Initial residual = 0.00431364, Final residual = 0.000430703, No Iterations 7
time step continuity errors : sum local = 6.05499e-06, global = -1.28609e-17, cumulative = -3.46386e-16
Pressure gradient source: uncorrected Ubar = 1.00002, pressure gradient = 1.59044
smoothSolver:  Solving for omega, Initial residual = 0.000136199, Final residual = 1.05844e-05, No Iterations 6
smoothSolver:  Solving for k, Initial residual = 0.00567793, Final residual = 0.000476361, No Iterations 6
ExecutionTime = 0.242618 s  ClockTime = 0 s

Time = 82s

smoothSolver:  Solving for Ux, Initial residual = 0.0035506, Final residual = 0.00033319, No Iterations 5
smoothSolver:  Solving for Uy, Initial residual = 0.014804, Final residual = 0.00117485, No Iterations 6
Pressure gradient source: uncorrected Ubar = 1.00036, pressure gradient = 1.17074
GAMG:  Solving for p, Initial residual = 0.0031733, Final residual = 0.00027059, No Iterations 9
time step continuity errors : sum local = 3.71629e-06, global = 9.30423e-18, cumulative = -3.37082e-16
Pressure gradient source: uncorrected Ubar = 1.00002, pressure gradient = 1.57114
smoothSolver:  Solving for omega, Initial residual = 0.000134321, Final residual = 1.03488e-05, No Iterations 6
smoothSolver:  Solving for k, Initial residual = 0.00564388, Final residual = 0.000474746, No Iterations 6
ExecutionTime = 0.245413 s  ClockTime = 0 s

Time = 83s

smoothSolver:  Solving for Ux, Initial residual = 0.0035274, Final residual = 0.000332078, No Iterations 5
smoothSolver:  Solving for Uy, Initial residual = 0.0140492, Final residual = 0.00113137, No Iterations 6
Pressure gradient source: uncorrected Ubar = 1.00036, pressure gradient = 1.14871
GAMG:  Solving for p, Initial residual = 0.00321034, Final residual = 0.000267313, No Iterations 7
time step continuity errors : sum local = 3.4036e-06, global = -5.02693e-18, cumulative = -3.42109e-16
Pressure gradient source: uncorrected Ubar = 1.00002, pressure gradient = 1.55144
smoothSolver:  Solving for omega, Initial residual = 0.000132858, Final residual = 1.03987e-05, No Iterations 6
smoothSolver:  Solving for k, Initial residual = 0.00560325, Final residual = 0.000469167, No Iterations 6
ExecutionTime = 0.24812 s  ClockTime = 0 s

Time = 84s

smoothSolver:  Solving for Ux, Initial residual = 0.00350564, Final residual = 0.000331029, No Iterations 5
smoothSolver:  Solving for Uy, Initial residual = 0.01401, Final residual = 0.00112452, No Iterations 6
Pressure gradient source: uncorrected Ubar = 1.00036, pressure gradient = 1.12669
GAMG:  Solving for p, Initial residual = 0.00271176, Final residual = 0.000235478, No Iterations 9
time step continuity errors : sum local = 3.06747e-06, global = -1.42776e-17, cumulative = -3.56387e-16
Pressure gradient source: uncorrected Ubar = 1.00002, pressure gradient = 1.53138
smoothSolver:  Solving for omega, Initial residual = 0.000131181, Final residual = 1.01341e-05, No Iterations 6
smoothSolver:  Solving for k, Initial residual = 0.00557451, Final residual = 0.000469948, No Iterations 6
ExecutionTime = 0.250937 s  ClockTime = 0 s

Time = 85s

smoothSolver:  Solving for Ux, Initial residual = 0.00348576, Final residual = 0.000330017, No Iterations 5
smoothSolver:  Solving for Uy, Initial residual = 0.0135352, Final residual = 0.00109504, No Iterations 6
Pressure gradient source: uncorrected Ubar = 1.00036, pressure gradient = 1.0995
GAMG:  Solving for p, Initial residual = 0.0026107, Final residual = 0.000213138, No Iterations 7
time step continuity errors : sum local = 2.8141e-06, global = -2.01115e-17, cumulative = -3.76498e-16
Pressure gradient source: uncorrected Ubar = 1.00002, pressure gradient = 1.51027
smoothSolver:  Solving for omega, Initial residual = 0.000130031, Final residual = 1.01234e-05, No Iterations 6
smoothSolver:  Solving for k, Initial residual = 0.00555382, Final residual = 0.000468447, No Iterations 6
ExecutionTime = 0.253654 s  ClockTime = 0 s

Time = 86s

smoothSolver:  Solving for Ux, Initial residual = 0.00346614, Final residual = 0.000328981, No Iterations 5
smoothSolver:  Solving for Uy, Initial residual = 0.013479, Final residual = 0.0010834, No Iterations 6
Pressure gradient source: uncorrected Ubar = 1.00036, pressure gradient = 1.07288
GAMG:  Solving for p, Initial residual = 0.00270723, Final residual = 0.000265818, No Iterations 5
time step continuity errors : sum local = 3.21734e-06, global = 2.84226e-17, cumulative = -3.48075e-16
Pressure gradient source: uncorrected Ubar = 1.00002, pressure gradient = 1.48834
smoothSolver:  Solving for omega, Initial residual = 0.00012895, Final residual = 9.99251e-06, No Iterations 6
smoothSolver:  Solving for k, Initial residual = 0.00552357, Final residual = 0.0004671, No Iterations 6
ExecutionTime = 0.256301 s  ClockTime = 0 s

Time = 87s

smoothSolver:  Solving for Ux, Initial residual = 0.00344686, Final residual = 0.000328033, No Iterations 5
smoothSolver:  Solving for Uy, Initial residual = 0.0128249, Final residual = 0.00104629, No Iterations 6
Pressure gradient source: uncorrected Ubar = 1.00035, pressure gradient = 1.049
GAMG:  Solving for p, Initial residual = 0.00263865, Final residual = 0.000223553, No Iterations 6
time step continuity errors : sum local = 2.72621e-06, global = 3.89356e-17, cumulative = -3.0914e-16
Pressure gradient source: uncorrected Ubar = 1.00002, pressure gradient = 1.46609
smoothSolver:  Solving for omega, Initial residual = 0.000128005, Final residual = 9.93953e-06, No Iterations 6
smoothSolver:  Solving for k, Initial residual = 0.00548668, Final residual = 0.000461797, No Iterations 6
ExecutionTime = 0.258978 s  ClockTime = 0 s

Time = 88s

smoothSolver:  Solving for Ux, Initial residual = 0.00342814, Final residual = 0.000327106, No Iterations 5
smoothSolver:  Solving for Uy, Initial residual = 0.0131717, Final residual = 0.00106601, No Iterations 6
Pressure gradient source: uncorrected Ubar = 1.00035, pressure gradient = 1.02815
GAMG:  Solving for p, Initial residual = 0.00227625, Final residual = 0.000193793, No Iterations 5
time step continuity errors : sum local = 2.27207e-06, global = 2.64469e-17, cumulative = -2.82693e-16
Pressure gradient source: uncorrected Ubar = 1.00002, pressure gradient = 1.444
smoothSolver:  Solving for omega, Initial residual = 0.000127125, Final residual = 9.77268e-06, No Iterations 6
smoothSolver:  Solving for k, Initial residual = 0.00545818, Final residual = 0.000462243, No Iterations 6
ExecutionTime = 0.261618 s  ClockTime = 0 s

Time = 89s

smoothSolver:  Solving for Ux, Initial residual = 0.00341028, Final residual = 0.000326274, No Iterations 5
smoothSolver:  Solving for Uy, Initial residual = 0.0129658, Final residual = 0.00106154, No Iterations 6
Pressure gradient source: uncorrected Ubar = 1.00035, pressure gradient = 1.00205
GAMG:  Solving for p, Initial residual = 0.00192273, Final residual = 0.000164263, No Iterations 4
time step continuity errors : sum local = 2.29594e-06, global = -5.2876e-18, cumulative = -2.87981e-16
Pressure gradient source: uncorrected Ubar = 1.00002, pressure gradient = 1.42127
[...]
smoothSolver:  Solving for k, Initial residual = 5.61589e-06, Final residual = 5.61589e-06, No Iterations 0
ExecutionTime = 5.47876 s  ClockTime = 6 s

Time = 2012s

smoothSolver:  Solving for Ux, Initial residual = 8.85143e-06, Final residual = 8.85143e-06, No Iterations 0
smoothSolver:  Solving for Uy, Initial residual = 0.000174478, Final residual = 1.4528e-05, No Iterations 4
Pressure gradient source: uncorrected Ubar = 1, pressure gradient = 0.00371569
GAMG:  Solving for p, Initial residual = 4.37569e-05, Final residual = 3.66673e-06, No Iterations 6
time step continuity errors : sum local = 1.68649e-10, global = 2.19616e-18, cumulative = -1.32634e-16
Pressure gradient source: uncorrected Ubar = 1, pressure gradient = 0.00371568
smoothSolver:  Solving for omega, Initial residual = 9.13571e-06, Final residual = 9.13571e-06, No Iterations 0
smoothSolver:  Solving for k, Initial residual = 5.54928e-06, Final residual = 5.54928e-06, No Iterations 0
ExecutionTime = 5.48124 s  ClockTime = 6 s

Time = 2013s

smoothSolver:  Solving for Ux, Initial residual = 8.83497e-06, Final residual = 8.83497e-06, No Iterations 0
smoothSolver:  Solving for Uy, Initial residual = 0.000171135, Final residual = 1.44912e-05, No Iterations 4
Pressure gradient source: uncorrected Ubar = 1, pressure gradient = 0.00371568
GAMG:  Solving for p, Initial residual = 4.18857e-05, Final residual = 3.73822e-06, No Iterations 6
time step continuity errors : sum local = 1.71645e-10, global = -3.5304e-18, cumulative = -1.36164e-16
Pressure gradient source: uncorrected Ubar = 1, pressure gradient = 0.00371568
smoothSolver:  Solving for omega, Initial residual = 9.13571e-06, Final residual = 9.13571e-06, No Iterations 0
smoothSolver:  Solving for k, Initial residual = 5.50427e-06, Final residual = 5.50427e-06, No Iterations 0
ExecutionTime = 5.48382 s  ClockTime = 6 s

Time = 2014s

smoothSolver:  Solving for Ux, Initial residual = 8.81855e-06, Final residual = 8.81855e-06, No Iterations 0
smoothSolver:  Solving for Uy, Initial residual = 0.00016536, Final residual = 1.42953e-05, No Iterations 4
Pressure gradient source: uncorrected Ubar = 1, pressure gradient = 0.00371568
GAMG:  Solving for p, Initial residual = 3.96687e-05, Final residual = 3.84098e-06, No Iterations 6
time step continuity errors : sum local = 1.76456e-10, global = -4.36673e-18, cumulative = -1.40531e-16
Pressure gradient source: uncorrected Ubar = 1, pressure gradient = 0.00371567
smoothSolver:  Solving for omega, Initial residual = 9.13572e-06, Final residual = 9.13572e-06, No Iterations 0
smoothSolver:  Solving for k, Initial residual = 5.47416e-06, Final residual = 5.47416e-06, No Iterations 0
ExecutionTime = 5.48629 s  ClockTime = 6 s

Time = 2015s

smoothSolver:  Solving for Ux, Initial residual = 8.80216e-06, Final residual = 8.80216e-06, No Iterations 0
smoothSolver:  Solving for Uy, Initial residual = 0.000159044, Final residual = 1.39353e-05, No Iterations 4
Pressure gradient source: uncorrected Ubar = 1, pressure gradient = 0.00371567
GAMG:  Solving for p, Initial residual = 3.74787e-05, Final residual = 3.435e-06, No Iterations 7
time step continuity errors : sum local = 1.59443e-10, global = -8.60686e-19, cumulative = -1.41392e-16
Pressure gradient source: uncorrected Ubar = 1, pressure gradient = 0.00371567
smoothSolver:  Solving for omega, Initial residual = 9.13573e-06, Final residual = 9.13573e-06, No Iterations 0
smoothSolver:  Solving for k, Initial residual = 5.45555e-06, Final residual = 5.45555e-06, No Iterations 0
ExecutionTime = 5.4888 s  ClockTime = 6 s

Time = 2016s

smoothSolver:  Solving for Ux, Initial residual = 8.78581e-06, Final residual = 8.78581e-06, No Iterations 0
smoothSolver:  Solving for Uy, Initial residual = 0.000155011, Final residual = 1.37086e-05, No Iterations 4
Pressure gradient source: uncorrected Ubar = 1, pressure gradient = 0.00371567
GAMG:  Solving for p, Initial residual = 3.44473e-05, Final residual = 3.37624e-06, No Iterations 7
time step continuity errors : sum local = 1.57539e-10, global = -7.13119e-19, cumulative = -1.42105e-16
Pressure gradient source: uncorrected Ubar = 1, pressure gradient = 0.00371566
smoothSolver:  Solving for omega, Initial residual = 9.13574e-06, Final residual = 9.13574e-06, No Iterations 0
smoothSolver:  Solving for k, Initial residual = 5.46017e-06, Final residual = 5.46017e-06, No Iterations 0
ExecutionTime = 5.49132 s  ClockTime = 6 s

Time = 2017s

smoothSolver:  Solving for Ux, Initial residual = 8.76949e-06, Final residual = 8.76949e-06, No Iterations 0
smoothSolver:  Solving for Uy, Initial residual = 0.000149613, Final residual = 1.33871e-05, No Iterations 4
Pressure gradient source: uncorrected Ubar = 1, pressure gradient = 0.00371566
GAMG:  Solving for p, Initial residual = 3.23815e-05, Final residual = 2.81187e-06, No Iterations 8
time step continuity errors : sum local = 1.32947e-10, global = -1.66911e-18, cumulative = -1.43774e-16
Pressure gradient source: uncorrected Ubar = 1, pressure gradient = 0.00371566
smoothSolver:  Solving for omega, Initial residual = 9.13575e-06, Final residual = 9.13575e-06, No Iterations 0
smoothSolver:  Solving for k, Initial residual = 5.47823e-06, Final residual = 5.47823e-06, No Iterations 0
ExecutionTime = 5.49392 s  ClockTime = 6 s

Time = 2018s

smoothSolver:  Solving for Ux, Initial residual = 8.75321e-06, Final residual = 8.75321e-06, No Iterations 0
smoothSolver:  Solving for Uy, Initial residual = 0.000145939, Final residual = 1.31969e-05, No Iterations 4
Pressure gradient source: uncorrected Ubar = 1, pressure gradient = 0.00371566
GAMG:  Solving for p, Initial residual = 3.16412e-05, Final residual = 2.82102e-06, No Iterations 8
time step continuity errors : sum local = 1.33466e-10, global = 9.10319e-19, cumulative = -1.42864e-16
Pressure gradient source: uncorrected Ubar = 1, pressure gradient = 0.00371566
smoothSolver:  Solving for omega, Initial residual = 9.13576e-06, Final residual = 9.13576e-06, No Iterations 0
smoothSolver:  Solving for k, Initial residual = 5.50722e-06, Final residual = 5.50722e-06, No Iterations 0
ExecutionTime = 5.49649 s  ClockTime = 6 s

Time = 2019s

smoothSolver:  Solving for Ux, Initial residual = 8.73697e-06, Final residual = 8.73697e-06, No Iterations 0
smoothSolver:  Solving for Uy, Initial residual = 0.000140433, Final residual = 1.28539e-05, No Iterations 4
Pressure gradient source: uncorrected Ubar = 1, pressure gradient = 0.00371566
GAMG:  Solving for p, Initial residual = 3.06449e-05, Final residual = 2.88169e-06, No Iterations 8
time step continuity errors : sum local = 1.36514e-10, global = 4.1176e-18, cumulative = -1.38746e-16
Pressure gradient source: uncorrected Ubar = 1, pressure gradient = 0.00371565
smoothSolver:  Solving for omega, Initial residual = 9.13576e-06, Final residual = 9.13576e-06, No Iterations 0
smoothSolver:  Solving for k, Initial residual = 5.54143e-06, Final residual = 5.54143e-06, No Iterations 0
ExecutionTime = 5.49906 s  ClockTime = 6 s

Time = 2020s

smoothSolver:  Solving for Ux, Initial residual = 8.72075e-06, Final residual = 8.72075e-06, No Iterations 0
smoothSolver:  Solving for Uy, Initial residual = 0.000134877, Final residual = 1.24757e-05, No Iterations 4
Pressure gradient source: uncorrected Ubar = 1, pressure gradient = 0.00371565
GAMG:  Solving for p, Initial residual = 2.9579e-05, Final residual = 2.9539e-06, No Iterations 8
time step continuity errors : sum local = 1.40275e-10, global = 7.3794e-19, cumulative = -1.38008e-16
Pressure gradient source: uncorrected Ubar = 1, pressure gradient = 0.00371565
smoothSolver:  Solving for omega, Initial residual = 9.13577e-06, Final residual = 9.13577e-06, No Iterations 0
smoothSolver:  Solving for k, Initial residual = 5.5804e-06, Final residual = 5.5804e-06, No Iterations 0
ExecutionTime = 5.50166 s  ClockTime = 6 s

Time = 2021s

smoothSolver:  Solving for Ux, Initial residual = 8.70458e-06, Final residual = 8.70458e-06, No Iterations 0
smoothSolver:  Solving for Uy, Initial residual = 0.000130342, Final residual = 1.21392e-05, No Iterations 4
Pressure gradient source: uncorrected Ubar = 1, pressure gradient = 0.00371565
GAMG:  Solving for p, Initial residual = 2.84818e-05, Final residual = 2.62512e-06, No Iterations 9
time step continuity errors : sum local = 1.26081e-10, global = -4.46077e-18, cumulative = -1.42469e-16
Pressure gradient source: uncorrected Ubar = 1, pressure gradient = 0.00371564
smoothSolver:  Solving for omega, Initial residual = 9.13578e-06, Final residual = 9.13578e-06, No Iterations 0
smoothSolver:  Solving for k, Initial residual = 5.6249e-06, Final residual = 5.6249e-06, No Iterations 0
ExecutionTime = 5.50427 s  ClockTime = 6 s

Time = 2022s

smoothSolver:  Solving for Ux, Initial residual = 8.68843e-06, Final residual = 8.68843e-06, No Iterations 0
smoothSolver:  Solving for Uy, Initial residual = 0.000127455, Final residual = 1.19519e-05, No Iterations 4
Pressure gradient source: uncorrected Ubar = 1, pressure gradient = 0.00371564
GAMG:  Solving for p, Initial residual = 2.65187e-05, Final residual = 2.56661e-06, No Iterations 9
time step continuity errors : sum local = 1.23547e-10, global = -3.86906e-18, cumulative = -1.46338e-16
Pressure gradient source: uncorrected Ubar = 1, pressure gradient = 0.00371564
smoothSolver:  Solving for omega, Initial residual = 9.13579e-06, Final residual = 9.13579e-06, No Iterations 0
smoothSolver:  Solving for k, Initial residual = 5.672e-06, Final residual = 5.672e-06, No Iterations 0
ExecutionTime = 5.50687 s  ClockTime = 6 s

Time = 2023s

smoothSolver:  Solving for Ux, Initial residual = 8.67232e-06, Final residual = 8.67232e-06, No Iterations 0
smoothSolver:  Solving for Uy, Initial residual = 0.000125205, Final residual = 1.16838e-05, No Iterations 4
Pressure gradient source: uncorrected Ubar = 1, pressure gradient = 0.00371564
GAMG:  Solving for p, Initial residual = 2.51276e-05, Final residual = 2.30237e-06, No Iterations 10
time step continuity errors : sum local = 1.11035e-10, global = 8.85995e-19, cumulative = -1.45452e-16
Pressure gradient source: uncorrected Ubar = 1, pressure gradient = 0.00371563
smoothSolver:  Solving for omega, Initial residual = 9.1358e-06, Final residual = 9.1358e-06, No Iterations 0
smoothSolver:  Solving for k, Initial residual = 5.72191e-06, Final residual = 5.72191e-06, No Iterations 0
ExecutionTime = 5.50955 s  ClockTime = 6 s

Time = 2024s

smoothSolver:  Solving for Ux, Initial residual = 8.65625e-06, Final residual = 8.65625e-06, No Iterations 0
smoothSolver:  Solving for Uy, Initial residual = 0.000123724, Final residual = 1.15261e-05, No Iterations 4
Pressure gradient source: uncorrected Ubar = 1, pressure gradient = 0.00371563
GAMG:  Solving for p, Initial residual = 2.47504e-05, Final residual = 2.26588e-06, No Iterations 10
time step continuity errors : sum local = 1.09118e-10, global = 4.97443e-18, cumulative = -1.40477e-16
Pressure gradient source: uncorrected Ubar = 1, pressure gradient = 0.00371563
smoothSolver:  Solving for omega, Initial residual = 9.1358e-06, Final residual = 9.1358e-06, No Iterations 0
smoothSolver:  Solving for k, Initial residual = 5.77453e-06, Final residual = 5.77453e-06, No Iterations 0
ExecutionTime = 5.51223 s  ClockTime = 6 s

Time = 2025s

smoothSolver:  Solving for Ux, Initial residual = 8.64021e-06, Final residual = 8.64021e-06, No Iterations 0
smoothSolver:  Solving for Uy, Initial residual = 0.000120982, Final residual = 1.12175e-05, No Iterations 4
Pressure gradient source: uncorrected Ubar = 1, pressure gradient = 0.00371563
GAMG:  Solving for p, Initial residual = 2.40923e-05, Final residual = 2.27082e-06, No Iterations 10
time step continuity errors : sum local = 1.09373e-10, global = -1.98401e-18, cumulative = -1.42461e-16
Pressure gradient source: uncorrected Ubar = 1, pressure gradient = 0.00371563
smoothSolver:  Solving for omega, Initial residual = 9.13581e-06, Final residual = 9.13581e-06, No Iterations 0
smoothSolver:  Solving for k, Initial residual = 5.83172e-06, Final residual = 5.83172e-06, No Iterations 0
ExecutionTime = 5.51488 s  ClockTime = 6 s

Time = 2026s

smoothSolver:  Solving for Ux, Initial residual = 8.6242e-06, Final residual = 8.6242e-06, No Iterations 0
smoothSolver:  Solving for Uy, Initial residual = 0.000117912, Final residual = 1.08904e-05, No Iterations 4
Pressure gradient source: uncorrected Ubar = 1, pressure gradient = 0.00371563
GAMG:  Solving for p, Initial residual = 2.33081e-05, Final residual = 2.29803e-06, No Iterations 10
time step continuity errors : sum local = 1.10869e-10, global = -1.32562e-18, cumulative = -1.43787e-16
Pressure gradient source: uncorrected Ubar = 1, pressure gradient = 0.00371562
smoothSolver:  Solving for omega, Initial residual = 9.13582e-06, Final residual = 9.13582e-06, No Iterations 0
smoothSolver:  Solving for k, Initial residual = 5.89115e-06, Final residual = 5.89115e-06, No Iterations 0
ExecutionTime = 5.51754 s  ClockTime = 6 s

Time = 2027s

smoothSolver:  Solving for Ux, Initial residual = 8.60823e-06, Final residual = 8.60823e-06, No Iterations 0
smoothSolver:  Solving for Uy, Initial residual = 0.000114897, Final residual = 1.05887e-05, No Iterations 4
Pressure gradient source: uncorrected Ubar = 1, pressure gradient = 0.00371562
GAMG:  Solving for p, Initial residual = 2.24858e-05, Final residual = 1.93043e-06, No Iterations 11
time step continuity errors : sum local = 9.45263e-11, global = 3.46245e-18, cumulative = -1.40325e-16
Pressure gradient source: uncorrected Ubar = 1, pressure gradient = 0.00371562
smoothSolver:  Solving for omega, Initial residual = 9.13583e-06, Final residual = 9.13583e-06, No Iterations 0
smoothSolver:  Solving for k, Initial residual = 5.95359e-06, Final residual = 5.95359e-06, No Iterations 0
ExecutionTime = 5.52023 s  ClockTime = 6 s

Time = 2028s

smoothSolver:  Solving for Ux, Initial residual = 8.59229e-06, Final residual = 8.59229e-06, No Iterations 0
smoothSolver:  Solving for Uy, Initial residual = 0.000112688, Final residual = 1.04044e-05, No Iterations 4
Pressure gradient source: uncorrected Ubar = 1, pressure gradient = 0.00371562
GAMG:  Solving for p, Initial residual = 2.09885e-05, Final residual = 1.88539e-06, No Iterations 11
time step continuity errors : sum local = 9.23817e-11, global = 1.05822e-18, cumulative = -1.39266e-16
Pressure gradient source: uncorrected Ubar = 1, pressure gradient = 0.00371561
smoothSolver:  Solving for omega, Initial residual = 9.13584e-06, Final residual = 9.13584e-06, No Iterations 0
smoothSolver:  Solving for k, Initial residual = 6.01838e-06, Final residual = 6.01838e-06, No Iterations 0
ExecutionTime = 5.52297 s  ClockTime = 6 s

Time = 2029s

smoothSolver:  Solving for Ux, Initial residual = 8.57639e-06, Final residual = 8.57639e-06, No Iterations 0
smoothSolver:  Solving for Uy, Initial residual = 0.000110661, Final residual = 1.01527e-05, No Iterations 4
Pressure gradient source: uncorrected Ubar = 1, pressure gradient = 0.00371561
GAMG:  Solving for p, Initial residual = 1.99226e-05, Final residual = 1.85178e-06, No Iterations 11
time step continuity errors : sum local = 9.08846e-11, global = -5.40202e-18, cumulative = -1.44668e-16
Pressure gradient source: uncorrected Ubar = 1, pressure gradient = 0.00371561
smoothSolver:  Solving for omega, Initial residual = 9.13584e-06, Final residual = 9.13584e-06, No Iterations 0
smoothSolver:  Solving for k, Initial residual = 6.08367e-06, Final residual = 6.08367e-06, No Iterations 0
ExecutionTime = 5.52566 s  ClockTime = 6 s

Time = 2030s

smoothSolver:  Solving for Ux, Initial residual = 8.56051e-06, Final residual = 8.56051e-06, No Iterations 0
smoothSolver:  Solving for Uy, Initial residual = 0.000108594, Final residual = 9.90468e-06, No Iterations 4
Pressure gradient source: uncorrected Ubar = 1, pressure gradient = 0.00371561
GAMG:  Solving for p, Initial residual = 1.90509e-05, Final residual = 1.82512e-06, No Iterations 11
time step continuity errors : sum local = 8.97443e-11, global = -3.93686e-18, cumulative = -1.48605e-16
Pressure gradient source: uncorrected Ubar = 1, pressure gradient = 0.0037156
smoothSolver:  Solving for omega, Initial residual = 9.13585e-06, Final residual = 9.13585e-06, No Iterations 0
smoothSolver:  Solving for k, Initial residual = 6.15244e-06, Final residual = 6.15244e-06, No Iterations 0
ExecutionTime = 5.52838 s  ClockTime = 6 s

Time = 2031s

smoothSolver:  Solving for Ux, Initial residual = 8.54468e-06, Final residual = 8.54468e-06, No Iterations 0
smoothSolver:  Solving for Uy, Initial residual = 0.000106485, Final residual = 9.66627e-06, No Iterations 4
Pressure gradient source: uncorrected Ubar = 1, pressure gradient = 0.0037156
GAMG:  Solving for p, Initial residual = 1.82644e-05, Final residual = 1.76859e-06, No Iterations 12
time step continuity errors : sum local = 8.62056e-11, global = -4.07228e-19, cumulative = -1.49013e-16
Pressure gradient source: uncorrected Ubar = 1, pressure gradient = 0.0037156
smoothSolver:  Solving for omega, Initial residual = 9.13586e-06, Final residual = 9.13586e-06, No Iterations 0
smoothSolver:  Solving for k, Initial residual = 6.22204e-06, Final residual = 6.22204e-06, No Iterations 0
ExecutionTime = 5.53113 s  ClockTime = 6 s

Time = 2032s

smoothSolver:  Solving for Ux, Initial residual = 8.52887e-06, Final residual = 8.52887e-06, No Iterations 0
smoothSolver:  Solving for Uy, Initial residual = 0.000104919, Final residual = 9.50727e-06, No Iterations 4
Pressure gradient source: uncorrected Ubar = 1, pressure gradient = 0.0037156
GAMG:  Solving for p, Initial residual = 1.80546e-05, Final residual = 1.74625e-06, No Iterations 12
time step continuity errors : sum local = 8.49895e-11, global = 3.87527e-19, cumulative = -1.48625e-16
Pressure gradient source: uncorrected Ubar = 1, pressure gradient = 0.0037156
smoothSolver:  Solving for omega, Initial residual = 9.13587e-06, Final residual = 9.13587e-06, No Iterations 0
smoothSolver:  Solving for k, Initial residual = 6.2927e-06, Final residual = 6.2927e-06, No Iterations 0
ExecutionTime = 5.53388 s  ClockTime = 6 s

Time = 2033s

smoothSolver:  Solving for Ux, Initial residual = 8.5131e-06, Final residual = 8.5131e-06, No Iterations 0
smoothSolver:  Solving for Uy, Initial residual = 0.00010222, Final residual = 9.2398e-06, No Iterations 4
Pressure gradient source: uncorrected Ubar = 1, pressure gradient = 0.0037156
GAMG:  Solving for p, Initial residual = 1.75767e-05, Final residual = 1.74386e-06, No Iterations 12
time step continuity errors : sum local = 8.48482e-11, global = 2.25678e-18, cumulative = -1.46368e-16
Pressure gradient source: uncorrected Ubar = 1, pressure gradient = 0.00371559
smoothSolver:  Solving for omega, Initial residual = 9.13588e-06, Final residual = 9.13588e-06, No Iterations 0
smoothSolver:  Solving for k, Initial residual = 6.36571e-06, Final residual = 6.36571e-06, No Iterations 0
ExecutionTime = 5.53664 s  ClockTime = 6 s

Time = 2034s

smoothSolver:  Solving for Ux, Initial residual = 8.49736e-06, Final residual = 8.49736e-06, No Iterations 0
smoothSolver:  Solving for Uy, Initial residual = 9.93763e-05, Final residual = 8.97243e-06, No Iterations 4
Pressure gradient source: uncorrected Ubar = 1, pressure gradient = 0.00371559
GAMG:  Solving for p, Initial residual = 1.69885e-05, Final residual = 1.42629e-06, No Iterations 13
time step continuity errors : sum local = 7.05342e-11, global = -4.84114e-18, cumulative = -1.51209e-16
Pressure gradient source: uncorrected Ubar = 1, pressure gradient = 0.00371559
smoothSolver:  Solving for omega, Initial residual = 9.13588e-06, Final residual = 9.13588e-06, No Iterations 0
smoothSolver:  Solving for k, Initial residual = 6.43922e-06, Final residual = 6.43922e-06, No Iterations 0
ExecutionTime = 5.53942 s  ClockTime = 6 s


SIMPLE solution converged in 2034 iterations

End

