/*---------------------------------------------------------------------------*\
  =========                 |
  \\      /  F ield         | OpenFOAM: The Open Source CFD Toolbox
   \\    /   O peration     | Website:  https://openfoam.org
    \\  /    A nd           | Version:  10
     \\/     M anipulation  |
\*---------------------------------------------------------------------------*/
Build  : 10-e450dce21ea5
Exec   : blockMesh
Date   : Feb 20 2023
Time   : 14:11:32
Host   : "w530-R9YK46P"
PID    : 18605
I/O    : uncollated
Case   : /home/jdmezazeron/gitDanielMezaZ/turbulenceVisualized/Data/SimulationFiles/K19_Re859
nProcs : 1
sigFpe : Enabling floating point exception trapping (FOAM_SIGFPE).
fileModificationChecking : Monitoring run-time modified files using timeStampMaster (fileModificationSkew 10)
allowSystemOperations : Allowing user-supplied system call operations

// * * * * * * * * * * * * * * * * * * * * * * * * * * * * * * * * * * * * * //
Create time

Deleting polyMesh directory
    "/home/jdmezazeron/gitDanielMezaZ/turbulenceVisualized/Data/SimulationFiles/K19_Re859/constant/polyMesh"
Reading "blockMeshDict"

Creating block mesh from
    "system/blockMeshDict"
Creating block edges
No non-planar block faces defined
Creating topology blocks
Creating topology patches

Creating block mesh topology

Check topology

	Basic statistics
		Number of internal faces : 0
		Number of boundary faces : 6
		Number of defined boundary faces : 6
		Number of undefined boundary faces : 0
	Checking patch -> block consistency

Creating block offsets
Creating merge list .

Creating polyMesh from blockMesh
Creating patches
Creating cells
Creating points with scale 1
    Block 0 cell size :
        i : 0.5
        j : 0.00461374 .. 0.018455
        k : 2

Detected cyclic patches; ordering boundary faces

Writing polyMesh
----------------
Mesh Information
----------------
  boundingBox: (-1 0 -1) (1 1 1)
  nPoints: 1010
  nCells: 400
  nFaces: 1704
  nInternalFaces: 696
----------------
Patches
----------------
  patch 0 (start: 696 size: 100) name: inlet
  patch 1 (start: 796 size: 100) name: outlet
  patch 2 (start: 896 size: 4) name: fixedWalls-bottom
  patch 3 (start: 900 size: 4) name: fixedWalls-top
  patch 4 (start: 904 size: 800) name: frontAndBack

End

/*---------------------------------------------------------------------------*\
  =========                 |
  \\      /  F ield         | OpenFOAM: The Open Source CFD Toolbox
   \\    /   O peration     | Website:  https://openfoam.org
    \\  /    A nd           | Version:  10
     \\/     M anipulation  |
\*---------------------------------------------------------------------------*/
Build  : 10-e450dce21ea5
Exec   : simpleFoam
Date   : Feb 20 2023
Time   : 14:11:32
Host   : "w530-R9YK46P"
PID    : 18606
I/O    : uncollated
Case   : /home/jdmezazeron/gitDanielMezaZ/turbulenceVisualized/Data/SimulationFiles/K19_Re859
nProcs : 1
sigFpe : Enabling floating point exception trapping (FOAM_SIGFPE).
fileModificationChecking : Monitoring run-time modified files using timeStampMaster (fileModificationSkew 10)
allowSystemOperations : Allowing user-supplied system call operations

// * * * * * * * * * * * * * * * * * * * * * * * * * * * * * * * * * * * * * //
Create time

Create mesh for time = 0


SIMPLE: Convergence criteria found
        U: tolerance 0.0001
        p: tolerance 0.01
        omega: tolerance 0.0001

Reading field p

Reading field U

Reading/calculating face flux field phi

Selecting viscosity model Newtonian
Selecting turbulence model type RAS
Selecting RAS turbulence model kOmegaSST
Selecting patchDistMethod meshWave
RAS
{
    RASModel        kOmegaSST;
    turbulence      on;
    printCoeffs     on;
    alphaK1         0.85;
    alphaK2         1;
    alphaOmega1     0.5;
    alphaOmega2     0.856;
    gamma1          0.555556;
    gamma2          0.44;
    beta1           0.075;
    beta2           0.0828;
    betaStar        0.09;
    a1              0.31;
    b1              1;
    c1              10;
    F3              false;
}

No MRF models present

--> FOAM Warning : Creating fvModels from "system/fvOptions" rather than constant/fvModels
No fvModels present
--> FOAM Warning : Creating fvConstraints from "system/fvOptions"

Selecting finite volume constraint type meanVelocityForce
    Name: momentumSource
    - selecting all cells
    - selected 400 cell(s) with volume 4
    Initial pressure gradient = 0


Starting time loop

turbulenceFields stressComponents: storing fields:
    R

Time = 1s

smoothSolver:  Solving for Ux, Initial residual = 0, Final residual = 0, No Iterations 0
smoothSolver:  Solving for Uy, Initial residual = 0, Final residual = 0, No Iterations 0
Pressure gradient source: uncorrected Ubar = 0, pressure gradient = 1423.47
GAMG:  Solving for p, Initial residual = 0.999996, Final residual = 0.0613344, No Iterations 3
time step continuity errors : sum local = 7.82227e-17, global = 3.38591e-18, cumulative = 3.38591e-18
Pressure gradient source: uncorrected Ubar = 0.884652, pressure gradient = 164.195
smoothSolver:  Solving for omega, Initial residual = 0.166301, Final residual = 0.0100484, No Iterations 3
smoothSolver:  Solving for k, Initial residual = 1, Final residual = 0.0888339, No Iterations 1
ExecutionTime = 0.014409 s  ClockTime = 0 s

Time = 2s

smoothSolver:  Solving for Ux, Initial residual = 0.982795, Final residual = 0.0872417, No Iterations 6
smoothSolver:  Solving for Uy, Initial residual = 1, Final residual = 0.0729427, No Iterations 6
Pressure gradient source: uncorrected Ubar = 28.1543, pressure gradient = -1227.2
GAMG:  Solving for p, Initial residual = 1, Final residual = 0.0993659, No Iterations 12
time step continuity errors : sum local = 0.021664, global = -1.50704e-17, cumulative = -1.16845e-17
Pressure gradient source: uncorrected Ubar = 4.46625, pressure gradient = -13.4167
smoothSolver:  Solving for omega, Initial residual = 0.197022, Final residual = 0.000831252, No Iterations 1
smoothSolver:  Solving for k, Initial residual = 0.979987, Final residual = 0.0167443, No Iterations 1
ExecutionTime = 0.017457 s  ClockTime = 0 s

Time = 3s

smoothSolver:  Solving for Ux, Initial residual = 0.490478, Final residual = 0.037097, No Iterations 6
smoothSolver:  Solving for Uy, Initial residual = 0.439866, Final residual = 0.0257709, No Iterations 3
Pressure gradient source: uncorrected Ubar = -0.775839, pressure gradient = 100.037
GAMG:  Solving for p, Initial residual = 0.209102, Final residual = 0.0177659, No Iterations 4
time step continuity errors : sum local = 0.00775275, global = -2.51535e-17, cumulative = -3.6838e-17
Pressure gradient source: uncorrected Ubar = 0.779455, pressure gradient = 0.673412
smoothSolver:  Solving for omega, Initial residual = 0.00930199, Final residual = 0.00019724, No Iterations 1
smoothSolver:  Solving for k, Initial residual = 0.25264, Final residual = 0.0144881, No Iterations 2
ExecutionTime = 0.020012 s  ClockTime = 0 s

Time = 4s

smoothSolver:  Solving for Ux, Initial residual = 0.070956, Final residual = 0.00582001, No Iterations 4
smoothSolver:  Solving for Uy, Initial residual = 0.206683, Final residual = 0.0120741, No Iterations 4
Pressure gradient source: uncorrected Ubar = 1.02476, pressure gradient = -0.619268
GAMG:  Solving for p, Initial residual = 0.151902, Final residual = 0.0149207, No Iterations 11
time step continuity errors : sum local = 0.00858403, global = -2.61564e-17, cumulative = -6.29944e-17
Pressure gradient source: uncorrected Ubar = 1.00278, pressure gradient = 0.528148
smoothSolver:  Solving for omega, Initial residual = 0.00795699, Final residual = 0.000150193, No Iterations 1
smoothSolver:  Solving for k, Initial residual = 0.200203, Final residual = 0.0104921, No Iterations 4
ExecutionTime = 0.022898 s  ClockTime = 0 s

Time = 5s

smoothSolver:  Solving for Ux, Initial residual = 0.0517956, Final residual = 0.00467349, No Iterations 4
smoothSolver:  Solving for Uy, Initial residual = 0.239263, Final residual = 0.0220842, No Iterations 3
Pressure gradient source: uncorrected Ubar = 0.977912, pressure gradient = 1.83334
GAMG:  Solving for p, Initial residual = 0.165073, Final residual = 0.0145188, No Iterations 11
time step continuity errors : sum local = 0.00786908, global = -2.61767e-17, cumulative = -8.91711e-17
Pressure gradient source: uncorrected Ubar = 0.996289, pressure gradient = 0.747414
smoothSolver:  Solving for omega, Initial residual = 0.00333496, Final residual = 0.000115034, No Iterations 1
smoothSolver:  Solving for k, Initial residual = 0.399773, Final residual = 0.0324566, No Iterations 3
ExecutionTime = 0.025788 s  ClockTime = 0 s

Time = 6s

smoothSolver:  Solving for Ux, Initial residual = 0.0482287, Final residual = 0.00459516, No Iterations 4
smoothSolver:  Solving for Uy, Initial residual = 0.416394, Final residual = 0.0397257, No Iterations 3
Pressure gradient source: uncorrected Ubar = 0.989929, pressure gradient = 1.44875
GAMG:  Solving for p, Initial residual = 0.167819, Final residual = 0.0167607, No Iterations 12
time step continuity errors : sum local = 0.00675344, global = 1.21769e-17, cumulative = -7.69941e-17
Pressure gradient source: uncorrected Ubar = 0.99797, pressure gradient = 0.888767
smoothSolver:  Solving for omega, Initial residual = 0.00234955, Final residual = 0.000159465, No Iterations 1
smoothSolver:  Solving for k, Initial residual = 0.45728, Final residual = 0.022956, No Iterations 4
ExecutionTime = 0.028707 s  ClockTime = 0 s

Time = 7s

smoothSolver:  Solving for Ux, Initial residual = 0.0418135, Final residual = 0.00370826, No Iterations 4
smoothSolver:  Solving for Uy, Initial residual = 0.562753, Final residual = 0.0349987, No Iterations 4
Pressure gradient source: uncorrected Ubar = 0.973337, pressure gradient = 3.07412
GAMG:  Solving for p, Initial residual = 0.373797, Final residual = 0.0323588, No Iterations 10
time step continuity errors : sum local = 0.00865276, global = 1.66959e-17, cumulative = -6.02983e-17
Pressure gradient source: uncorrected Ubar = 0.996008, pressure gradient = 1.21599
smoothSolver:  Solving for omega, Initial residual = 0.00137139, Final residual = 9.27834e-05, No Iterations 2
smoothSolver:  Solving for k, Initial residual = 0.284245, Final residual = 0.0225071, No Iterations 4
ExecutionTime = 0.031597 s  ClockTime = 0 s

Time = 8s

smoothSolver:  Solving for Ux, Initial residual = 0.0404927, Final residual = 0.00348109, No Iterations 4
smoothSolver:  Solving for Uy, Initial residual = 0.510748, Final residual = 0.0302884, No Iterations 4
Pressure gradient source: uncorrected Ubar = 0.995523, pressure gradient = 1.61828
GAMG:  Solving for p, Initial residual = 0.221004, Final residual = 0.0196765, No Iterations 9
time step continuity errors : sum local = 0.00831553, global = -2.71051e-18, cumulative = -6.30088e-17
Pressure gradient source: uncorrected Ubar = 0.999088, pressure gradient = 1.29794
smoothSolver:  Solving for omega, Initial residual = 0.000829965, Final residual = 4.33956e-05, No Iterations 2
smoothSolver:  Solving for k, Initial residual = 0.129883, Final residual = 0.00754747, No Iterations 5
ExecutionTime = 0.03438 s  ClockTime = 0 s

Time = 9s

smoothSolver:  Solving for Ux, Initial residual = 0.0349894, Final residual = 0.00311823, No Iterations 4
smoothSolver:  Solving for Uy, Initial residual = 0.364891, Final residual = 0.0205269, No Iterations 4
Pressure gradient source: uncorrected Ubar = 1.00217, pressure gradient = 1.08326
GAMG:  Solving for p, Initial residual = 0.167304, Final residual = 0.0150453, No Iterations 7
time step continuity errors : sum local = 0.00703171, global = -2.11419e-17, cumulative = -8.41507e-17
Pressure gradient source: uncorrected Ubar = 1.00023, pressure gradient = 1.27516
smoothSolver:  Solving for omega, Initial residual = 0.000494598, Final residual = 2.96318e-05, No Iterations 2
smoothSolver:  Solving for k, Initial residual = 0.0742935, Final residual = 0.0048076, No Iterations 5
ExecutionTime = 0.037107 s  ClockTime = 0 s

Time = 10s

smoothSolver:  Solving for Ux, Initial residual = 0.0305466, Final residual = 0.00279713, No Iterations 4
smoothSolver:  Solving for Uy, Initial residual = 0.283938, Final residual = 0.0210324, No Iterations 4
Pressure gradient source: uncorrected Ubar = 1.00251, pressure gradient = 1.00509
GAMG:  Solving for p, Initial residual = 0.153322, Final residual = 0.0150861, No Iterations 8
time step continuity errors : sum local = 0.00577094, global = 1.4259e-17, cumulative = -6.98918e-17
Pressure gradient source: uncorrected Ubar = 1.0003, pressure gradient = 1.2427
smoothSolver:  Solving for omega, Initial residual = 0.000345131, Final residual = 2.23238e-05, No Iterations 3
smoothSolver:  Solving for k, Initial residual = 0.0499159, Final residual = 0.00358848, No Iterations 5
ExecutionTime = 0.039934 s  ClockTime = 0 s

Time = 11s

smoothSolver:  Solving for Ux, Initial residual = 0.0269701, Final residual = 0.00254002, No Iterations 4
smoothSolver:  Solving for Uy, Initial residual = 0.266736, Final residual = 0.0233837, No Iterations 4
Pressure gradient source: uncorrected Ubar = 1.00175, pressure gradient = 1.04014
GAMG:  Solving for p, Initial residual = 0.176414, Final residual = 0.0158196, No Iterations 10
time step continuity errors : sum local = 0.00468097, global = -1.72663e-17, cumulative = -8.71581e-17
Pressure gradient source: uncorrected Ubar = 1.00018, pressure gradient = 1.22183
smoothSolver:  Solving for omega, Initial residual = 0.000222291, Final residual = 1.44187e-05, No Iterations 4
smoothSolver:  Solving for k, Initial residual = 0.0374279, Final residual = 0.00294601, No Iterations 5
ExecutionTime = 0.042813 s  ClockTime = 0 s

Time = 12s

smoothSolver:  Solving for Ux, Initial residual = 0.0242169, Final residual = 0.00233865, No Iterations 4
smoothSolver:  Solving for Uy, Initial residual = 0.247159, Final residual = 0.0233839, No Iterations 4
Pressure gradient source: uncorrected Ubar = 1.00044, pressure gradient = 1.16685
GAMG:  Solving for p, Initial residual = 0.198464, Final residual = 0.0162171, No Iterations 12
time step continuity errors : sum local = 0.00388284, global = 1.57205e-17, cumulative = -7.14376e-17
Pressure gradient source: uncorrected Ubar = 0.99996, pressure gradient = 1.22687
smoothSolver:  Solving for omega, Initial residual = 0.000173231, Final residual = 1.40594e-05, No Iterations 4
smoothSolver:  Solving for k, Initial residual = 0.0301663, Final residual = 0.0025231, No Iterations 5
ExecutionTime = 0.045791 s  ClockTime = 0 s

Time = 13s

smoothSolver:  Solving for Ux, Initial residual = 0.0220332, Final residual = 0.00217779, No Iterations 4
smoothSolver:  Solving for Uy, Initial residual = 0.222349, Final residual = 0.0213515, No Iterations 4
Pressure gradient source: uncorrected Ubar = 1.00098, pressure gradient = 1.09219
GAMG:  Solving for p, Initial residual = 0.220495, Final residual = 0.0211423, No Iterations 11
time step continuity errors : sum local = 0.00403304, global = -2.62375e-17, cumulative = -9.76751e-17
Pressure gradient source: uncorrected Ubar = 0.999999, pressure gradient = 1.22703
smoothSolver:  Solving for omega, Initial residual = 0.000138144, Final residual = 8.91281e-06, No Iterations 5
smoothSolver:  Solving for k, Initial residual = 0.0254095, Final residual = 0.00217578, No Iterations 5
ExecutionTime = 0.048788 s  ClockTime = 0 s

Time = 14s

smoothSolver:  Solving for Ux, Initial residual = 0.0203085, Final residual = 0.00130396, No Iterations 5
smoothSolver:  Solving for Uy, Initial residual = 0.16992, Final residual = 0.0168818, No Iterations 4
Pressure gradient source: uncorrected Ubar = 1.00115, pressure gradient = 1.0573
GAMG:  Solving for p, Initial residual = 0.13991, Final residual = 0.0122552, No Iterations 11
time step continuity errors : sum local = 0.00308889, global = -3.86518e-17, cumulative = -1.36327e-16
Pressure gradient source: uncorrected Ubar = 1.00004, pressure gradient = 1.22087
smoothSolver:  Solving for omega, Initial residual = 0.000114776, Final residual = 8.51544e-06, No Iterations 5
smoothSolver:  Solving for k, Initial residual = 0.0217885, Final residual = 0.00188022, No Iterations 5
ExecutionTime = 0.051803 s  ClockTime = 0 s

Time = 15s

smoothSolver:  Solving for Ux, Initial residual = 0.0187933, Final residual = 0.00122836, No Iterations 5
smoothSolver:  Solving for Uy, Initial residual = 0.133558, Final residual = 0.00852052, No Iterations 5
Pressure gradient source: uncorrected Ubar = 1.0017, pressure gradient = 0.95139
GAMG:  Solving for p, Initial residual = 0.100656, Final residual = 0.00803291, No Iterations 10
time step continuity errors : sum local = 0.00224873, global = -2.28227e-17, cumulative = -1.5915e-16
Pressure gradient source: uncorrected Ubar = 1.0001, pressure gradient = 1.20435
smoothSolver:  Solving for omega, Initial residual = 0.000103208, Final residual = 8.57223e-06, No Iterations 5
smoothSolver:  Solving for k, Initial residual = 0.0192138, Final residual = 0.00165036, No Iterations 5
ExecutionTime = 0.054708 s  ClockTime = 0 s

Time = 16s

smoothSolver:  Solving for Ux, Initial residual = 0.0175049, Final residual = 0.0011626, No Iterations 5
smoothSolver:  Solving for Uy, Initial residual = 0.118617, Final residual = 0.00774826, No Iterations 5
Pressure gradient source: uncorrected Ubar = 1.00161, pressure gradient = 0.930878
GAMG:  Solving for p, Initial residual = 0.0789649, Final residual = 0.00707106, No Iterations 8
time step continuity errors : sum local = 0.00175272, global = -7.45389e-18, cumulative = -1.66603e-16
Pressure gradient source: uncorrected Ubar = 1.00009, pressure gradient = 1.18835
smoothSolver:  Solving for omega, Initial residual = 9.11911e-05, Final residual = 8.27248e-06, No Iterations 5
smoothSolver:  Solving for k, Initial residual = 0.0171059, Final residual = 0.00148016, No Iterations 5
ExecutionTime = 0.05754 s  ClockTime = 0 s

Time = 17s

smoothSolver:  Solving for Ux, Initial residual = 0.0164107, Final residual = 0.00110721, No Iterations 5
smoothSolver:  Solving for Uy, Initial residual = 0.100434, Final residual = 0.0069024, No Iterations 5
Pressure gradient source: uncorrected Ubar = 1.00169, pressure gradient = 0.883719
GAMG:  Solving for p, Initial residual = 0.0731746, Final residual = 0.0066877, No Iterations 9
time step continuity errors : sum local = 0.00109769, global = 3.03619e-18, cumulative = -1.63567e-16
Pressure gradient source: uncorrected Ubar = 1.00011, pressure gradient = 1.16893
smoothSolver:  Solving for omega, Initial residual = 8.72834e-05, Final residual = 8.11842e-06, No Iterations 5
smoothSolver:  Solving for k, Initial residual = 0.0155905, Final residual = 0.00135985, No Iterations 5
ExecutionTime = 0.060434 s  ClockTime = 0 s

Time = 18s

smoothSolver:  Solving for Ux, Initial residual = 0.0154616, Final residual = 0.00105735, No Iterations 5
smoothSolver:  Solving for Uy, Initial residual = 0.0840023, Final residual = 0.00619447, No Iterations 5
Pressure gradient source: uncorrected Ubar = 1.00165, pressure gradient = 0.852862
GAMG:  Solving for p, Initial residual = 0.0755748, Final residual = 0.00672615, No Iterations 14
time step continuity errors : sum local = 0.000972572, global = 1.00013e-17, cumulative = -1.53566e-16
Pressure gradient source: uncorrected Ubar = 1.00011, pressure gradient = 1.14806
smoothSolver:  Solving for omega, Initial residual = 8.31842e-05, Final residual = 7.83636e-06, No Iterations 5
smoothSolver:  Solving for k, Initial residual = 0.014515, Final residual = 0.0012904, No Iterations 5
ExecutionTime = 0.063511 s  ClockTime = 0 s

Time = 19s

smoothSolver:  Solving for Ux, Initial residual = 0.0146441, Final residual = 0.00101659, No Iterations 5
smoothSolver:  Solving for Uy, Initial residual = 0.0677346, Final residual = 0.00544626, No Iterations 5
Pressure gradient source: uncorrected Ubar = 1.00161, pressure gradient = 0.824044
GAMG:  Solving for p, Initial residual = 0.0942486, Final residual = 0.00788315, No Iterations 18
time step continuity errors : sum local = 0.000767165, global = 8.34814e-18, cumulative = -1.45218e-16
Pressure gradient source: uncorrected Ubar = 1.00011, pressure gradient = 1.12563
smoothSolver:  Solving for omega, Initial residual = 7.66607e-05, Final residual = 7.72421e-06, No Iterations 5
smoothSolver:  Solving for k, Initial residual = 0.0136161, Final residual = 0.00124706, No Iterations 5
ExecutionTime = 0.066787 s  ClockTime = 0 s

Time = 20s

smoothSolver:  Solving for Ux, Initial residual = 0.0139184, Final residual = 0.000977094, No Iterations 5
smoothSolver:  Solving for Uy, Initial residual = 0.0550538, Final residual = 0.00457046, No Iterations 5
Pressure gradient source: uncorrected Ubar = 1.0015, pressure gradient = 0.807757
GAMG:  Solving for p, Initial residual = 0.0627776, Final residual = 0.00551017, No Iterations 18
time step continuity errors : sum local = 0.000610986, global = 1.58836e-17, cumulative = -1.29334e-16
Pressure gradient source: uncorrected Ubar = 1.0001, pressure gradient = 1.10414
smoothSolver:  Solving for omega, Initial residual = 7.0969e-05, Final residual = 7.51071e-06, No Iterations 5
smoothSolver:  Solving for k, Initial residual = 0.0129097, Final residual = 0.0012148, No Iterations 5
ExecutionTime = 0.070109 s  ClockTime = 0 s

Time = 21s

smoothSolver:  Solving for Ux, Initial residual = 0.0132642, Final residual = 0.000944041, No Iterations 5
smoothSolver:  Solving for Uy, Initial residual = 0.0450064, Final residual = 0.00385218, No Iterations 5
Pressure gradient source: uncorrected Ubar = 1.00144, pressure gradient = 0.784066
GAMG:  Solving for p, Initial residual = 0.036579, Final residual = 0.00307272, No Iterations 19
time step continuity errors : sum local = 0.000433838, global = -8.4567e-18, cumulative = -1.37791e-16
Pressure gradient source: uncorrected Ubar = 1.0001, pressure gradient = 1.08224
smoothSolver:  Solving for omega, Initial residual = 6.89282e-05, Final residual = 7.23485e-06, No Iterations 5
smoothSolver:  Solving for k, Initial residual = 0.012278, Final residual = 0.0011808, No Iterations 5
ExecutionTime = 0.073447 s  ClockTime = 0 s

Time = 22s

smoothSolver:  Solving for Ux, Initial residual = 0.01269, Final residual = 0.000913618, No Iterations 5
smoothSolver:  Solving for Uy, Initial residual = 0.038162, Final residual = 0.00342144, No Iterations 5
Pressure gradient source: uncorrected Ubar = 1.00137, pressure gradient = 0.762224
GAMG:  Solving for p, Initial residual = 0.0247897, Final residual = 0.0023677, No Iterations 17
time step continuity errors : sum local = 0.000355652, global = 1.68186e-17, cumulative = -1.20972e-16
Pressure gradient source: uncorrected Ubar = 1.00009, pressure gradient = 1.06045
smoothSolver:  Solving for omega, Initial residual = 6.50072e-05, Final residual = 7.15259e-06, No Iterations 5
smoothSolver:  Solving for k, Initial residual = 0.0117717, Final residual = 0.00115519, No Iterations 5
ExecutionTime = 0.076676 s  ClockTime = 1 s

Time = 23s

smoothSolver:  Solving for Ux, Initial residual = 0.0121741, Final residual = 0.000884866, No Iterations 5
smoothSolver:  Solving for Uy, Initial residual = 0.032791, Final residual = 0.0031167, No Iterations 5
Pressure gradient source: uncorrected Ubar = 1.0013, pressure gradient = 0.746087
GAMG:  Solving for p, Initial residual = 0.0184006, Final residual = 0.00183026, No Iterations 15
time step continuity errors : sum local = 0.000267342, global = -4.4317e-18, cumulative = -1.25404e-16
Pressure gradient source: uncorrected Ubar = 1.00009, pressure gradient = 1.03929
smoothSolver:  Solving for omega, Initial residual = 6.30381e-05, Final residual = 6.83308e-06, No Iterations 5
smoothSolver:  Solving for k, Initial residual = 0.0113306, Final residual = 0.00113305, No Iterations 5
ExecutionTime = 0.079864 s  ClockTime = 1 s

Time = 24s

smoothSolver:  Solving for Ux, Initial residual = 0.0116941, Final residual = 0.000860231, No Iterations 5
smoothSolver:  Solving for Uy, Initial residual = 0.029265, Final residual = 0.00290632, No Iterations 5
Pressure gradient source: uncorrected Ubar = 1.00123, pressure gradient = 0.728631
GAMG:  Solving for p, Initial residual = 0.0148672, Final residual = 0.00146403, No Iterations 14
time step continuity errors : sum local = 0.00019552, global = -6.29518e-18, cumulative = -1.31699e-16
Pressure gradient source: uncorrected Ubar = 1.00008, pressure gradient = 1.01864
smoothSolver:  Solving for omega, Initial residual = 6.04588e-05, Final residual = 6.82542e-06, No Iterations 5
smoothSolver:  Solving for k, Initial residual = 0.0109253, Final residual = 0.000706016, No Iterations 6
ExecutionTime = 0.082952 s  ClockTime = 1 s

Time = 25s

smoothSolver:  Solving for Ux, Initial residual = 0.0112706, Final residual = 0.000837153, No Iterations 5
smoothSolver:  Solving for Uy, Initial residual = 0.0269359, Final residual = 0.00178525, No Iterations 6
Pressure gradient source: uncorrected Ubar = 1.0012, pressure gradient = 0.703083
GAMG:  Solving for p, Initial residual = 0.0122082, Final residual = 0.00117016, No Iterations 12
time step continuity errors : sum local = 0.00014536, global = 1.3007e-17, cumulative = -1.18692e-16
Pressure gradient source: uncorrected Ubar = 1.00008, pressure gradient = 0.997463
smoothSolver:  Solving for omega, Initial residual = 5.8292e-05, Final residual = 6.54606e-06, No Iterations 5
smoothSolver:  Solving for k, Initial residual = 0.0105346, Final residual = 0.000695943, No Iterations 6
ExecutionTime = 0.086044 s  ClockTime = 1 s

Time = 26s

smoothSolver:  Solving for Ux, Initial residual = 0.010881, Final residual = 0.000814895, No Iterations 5
smoothSolver:  Solving for Uy, Initial residual = 0.0249952, Final residual = 0.00169616, No Iterations 6
Pressure gradient source: uncorrected Ubar = 1.00114, pressure gradient = 0.686131
GAMG:  Solving for p, Initial residual = 0.0107395, Final residual = 0.000999265, No Iterations 12
time step continuity errors : sum local = 0.000117887, global = -2.56823e-18, cumulative = -1.2126e-16
Pressure gradient source: uncorrected Ubar = 1.00008, pressure gradient = 0.976837
smoothSolver:  Solving for omega, Initial residual = 5.62959e-05, Final residual = 9.86061e-06, No Iterations 4
smoothSolver:  Solving for k, Initial residual = 0.0102297, Final residual = 0.000691683, No Iterations 6
ExecutionTime = 0.089104 s  ClockTime = 1 s

Time = 27s

smoothSolver:  Solving for Ux, Initial residual = 0.0105145, Final residual = 0.000795959, No Iterations 5
smoothSolver:  Solving for Uy, Initial residual = 0.0240968, Final residual = 0.00166016, No Iterations 6
Pressure gradient source: uncorrected Ubar = 1.00111, pressure gradient = 0.661816
GAMG:  Solving for p, Initial residual = 0.00999581, Final residual = 0.000992772, No Iterations 12
time step continuity errors : sum local = 0.000113866, global = 7.01343e-19, cumulative = -1.20559e-16
Pressure gradient source: uncorrected Ubar = 1.00007, pressure gradient = 0.955819
smoothSolver:  Solving for omega, Initial residual = 5.52396e-05, Final residual = 9.70612e-06, No Iterations 4
smoothSolver:  Solving for k, Initial residual = 0.00993407, Final residual = 0.000683735, No Iterations 6
ExecutionTime = 0.09212 s  ClockTime = 1 s

Time = 28s

smoothSolver:  Solving for Ux, Initial residual = 0.0101895, Final residual = 0.000778077, No Iterations 5
smoothSolver:  Solving for Uy, Initial residual = 0.0245859, Final residual = 0.00168944, No Iterations 6
Pressure gradient source: uncorrected Ubar = 1.00104, pressure gradient = 0.64976
GAMG:  Solving for p, Initial residual = 0.00928901, Final residual = 0.000781527, No Iterations 15
time step continuity errors : sum local = 9.43241e-05, global = 1.87296e-17, cumulative = -1.01829e-16
Pressure gradient source: uncorrected Ubar = 1.00007, pressure gradient = 0.935888
smoothSolver:  Solving for omega, Initial residual = 5.40559e-05, Final residual = 9.54827e-06, No Iterations 4
smoothSolver:  Solving for k, Initial residual = 0.00966373, Final residual = 0.000678276, No Iterations 6
ExecutionTime = 0.095244 s  ClockTime = 1 s

Time = 29s

smoothSolver:  Solving for Ux, Initial residual = 0.00988425, Final residual = 0.000760049, No Iterations 5
smoothSolver:  Solving for Uy, Initial residual = 0.0252196, Final residual = 0.00174672, No Iterations 6
Pressure gradient source: uncorrected Ubar = 1.00099, pressure gradient = 0.636494
GAMG:  Solving for p, Initial residual = 0.00847808, Final residual = 0.000764102, No Iterations 15
time step continuity errors : sum local = 9.42934e-05, global = -2.30731e-18, cumulative = -1.04137e-16
Pressure gradient source: uncorrected Ubar = 1.00006, pressure gradient = 0.91676
smoothSolver:  Solving for omega, Initial residual = 5.28399e-05, Final residual = 9.40606e-06, No Iterations 4
smoothSolver:  Solving for k, Initial residual = 0.00941432, Final residual = 0.000665172, No Iterations 6
ExecutionTime = 0.098409 s  ClockTime = 1 s

Time = 30s

smoothSolver:  Solving for Ux, Initial residual = 0.00959858, Final residual = 0.000742982, No Iterations 5
smoothSolver:  Solving for Uy, Initial residual = 0.0258223, Final residual = 0.00181836, No Iterations 6
Pressure gradient source: uncorrected Ubar = 1.0009, pressure gradient = 0.635158
GAMG:  Solving for p, Initial residual = 0.00841352, Final residual = 0.000749752, No Iterations 15
time step continuity errors : sum local = 9.4848e-05, global = -1.31561e-17, cumulative = -1.17293e-16
Pressure gradient source: uncorrected Ubar = 1.00005, pressure gradient = 0.899765
smoothSolver:  Solving for omega, Initial residual = 5.15735e-05, Final residual = 9.18477e-06, No Iterations 4
smoothSolver:  Solving for k, Initial residual = 0.00915346, Final residual = 0.000655725, No Iterations 6
ExecutionTime = 0.101585 s  ClockTime = 1 s

Time = 31s

smoothSolver:  Solving for Ux, Initial residual = 0.00933951, Final residual = 0.000724774, No Iterations 5
smoothSolver:  Solving for Uy, Initial residual = 0.0256949, Final residual = 0.00182685, No Iterations 6
Pressure gradient source: uncorrected Ubar = 1.00084, pressure gradient = 0.629703
GAMG:  Solving for p, Initial residual = 0.00737054, Final residual = 0.000716446, No Iterations 15
time step continuity errors : sum local = 9.25482e-05, global = 1.91362e-17, cumulative = -9.81567e-17
Pressure gradient source: uncorrected Ubar = 1.00005, pressure gradient = 0.884109
smoothSolver:  Solving for omega, Initial residual = 5.03435e-05, Final residual = 9.00359e-06, No Iterations 4
smoothSolver:  Solving for k, Initial residual = 0.00887806, Final residual = 0.000639023, No Iterations 6
ExecutionTime = 0.104734 s  ClockTime = 1 s

Time = 32s

smoothSolver:  Solving for Ux, Initial residual = 0.00907884, Final residual = 0.000706295, No Iterations 5
smoothSolver:  Solving for Uy, Initial residual = 0.025599, Final residual = 0.00181037, No Iterations 6
Pressure gradient source: uncorrected Ubar = 1.00077, pressure gradient = 0.629471
GAMG:  Solving for p, Initial residual = 0.0064538, Final residual = 0.00055891, No Iterations 17
time step continuity errors : sum local = 7.36614e-05, global = -1.20347e-17, cumulative = -1.10191e-16
Pressure gradient source: uncorrected Ubar = 1.00004, pressure gradient = 0.87026
smoothSolver:  Solving for omega, Initial residual = 4.92179e-05, Final residual = 8.79045e-06, No Iterations 4
smoothSolver:  Solving for k, Initial residual = 0.00865337, Final residual = 0.000630982, No Iterations 6
ExecutionTime = 0.107969 s  ClockTime = 1 s

Time = 33s

smoothSolver:  Solving for Ux, Initial residual = 0.00882306, Final residual = 0.000688679, No Iterations 5
smoothSolver:  Solving for Uy, Initial residual = 0.0253858, Final residual = 0.00180285, No Iterations 6
Pressure gradient source: uncorrected Ubar = 1.00073, pressure gradient = 0.62078
GAMG:  Solving for p, Initial residual = 0.00550766, Final residual = 0.000471344, No Iterations 17
time step continuity errors : sum local = 6.29578e-05, global = 2.19246e-17, cumulative = -8.82668e-17
Pressure gradient source: uncorrected Ubar = 1.00004, pressure gradient = 0.856942
smoothSolver:  Solving for omega, Initial residual = 4.79395e-05, Final residual = 8.60724e-06, No Iterations 4
smoothSolver:  Solving for k, Initial residual = 0.00847015, Final residual = 0.000623921, No Iterations 6
ExecutionTime = 0.111211 s  ClockTime = 1 s

Time = 34s

smoothSolver:  Solving for Ux, Initial residual = 0.00857762, Final residual = 0.000671868, No Iterations 5
smoothSolver:  Solving for Uy, Initial residual = 0.0252304, Final residual = 0.00179883, No Iterations 6
Pressure gradient source: uncorrected Ubar = 1.00069, pressure gradient = 0.615887
GAMG:  Solving for p, Initial residual = 0.00509732, Final residual = 0.000458765, No Iterations 15
time step continuity errors : sum local = 6.1229e-05, global = -1.85602e-17, cumulative = -1.06827e-16
Pressure gradient source: uncorrected Ubar = 1.00004, pressure gradient = 0.844565
smoothSolver:  Solving for omega, Initial residual = 4.67544e-05, Final residual = 8.4332e-06, No Iterations 4
smoothSolver:  Solving for k, Initial residual = 0.00830443, Final residual = 0.000618922, No Iterations 6
ExecutionTime = 0.114371 s  ClockTime = 1 s

Time = 35s

smoothSolver:  Solving for Ux, Initial residual = 0.00834365, Final residual = 0.000656723, No Iterations 5
smoothSolver:  Solving for Uy, Initial residual = 0.0250531, Final residual = 0.0018004, No Iterations 6
Pressure gradient source: uncorrected Ubar = 1.00066, pressure gradient = 0.607718
GAMG:  Solving for p, Initial residual = 0.00450342, Final residual = 0.000387599, No Iterations 15
time step continuity errors : sum local = 5.22714e-05, global = 2.11504e-17, cumulative = -8.56766e-17
Pressure gradient source: uncorrected Ubar = 1.00003, pressure gradient = 0.832603
smoothSolver:  Solving for omega, Initial residual = 4.55813e-05, Final residual = 8.24062e-06, No Iterations 4
smoothSolver:  Solving for k, Initial residual = 0.00816897, Final residual = 0.000613435, No Iterations 6
ExecutionTime = 0.117535 s  ClockTime = 1 s

Time = 36s

smoothSolver:  Solving for Ux, Initial residual = 0.00812026, Final residual = 0.000642916, No Iterations 5
smoothSolver:  Solving for Uy, Initial residual = 0.024803, Final residual = 0.00179288, No Iterations 6
Pressure gradient source: uncorrected Ubar = 1.00063, pressure gradient = 0.601346
GAMG:  Solving for p, Initial residual = 0.00425686, Final residual = 0.000383961, No Iterations 13
time step continuity errors : sum local = 5.13932e-05, global = -8.24502e-18, cumulative = -9.39216e-17
Pressure gradient source: uncorrected Ubar = 1.00003, pressure gradient = 0.821229
smoothSolver:  Solving for omega, Initial residual = 4.44044e-05, Final residual = 8.06348e-06, No Iterations 4
smoothSolver:  Solving for k, Initial residual = 0.00804321, Final residual = 0.000609943, No Iterations 6
ExecutionTime = 0.120621 s  ClockTime = 1 s

Time = 37s

smoothSolver:  Solving for Ux, Initial residual = 0.00792233, Final residual = 0.000630039, No Iterations 5
smoothSolver:  Solving for Uy, Initial residual = 0.0244861, Final residual = 0.00177832, No Iterations 6
Pressure gradient source: uncorrected Ubar = 1.0006, pressure gradient = 0.594779
GAMG:  Solving for p, Initial residual = 0.00374513, Final residual = 0.000323378, No Iterations 13
time step continuity errors : sum local = 4.3171e-05, global = 1.03999e-17, cumulative = -8.35217e-17
Pressure gradient source: uncorrected Ubar = 1.00003, pressure gradient = 0.810351
smoothSolver:  Solving for omega, Initial residual = 4.32629e-05, Final residual = 7.84762e-06, No Iterations 4
smoothSolver:  Solving for k, Initial residual = 0.0079332, Final residual = 0.000606494, No Iterations 6
ExecutionTime = 0.123704 s  ClockTime = 1 s

Time = 38s

smoothSolver:  Solving for Ux, Initial residual = 0.00773668, Final residual = 0.000617717, No Iterations 5
smoothSolver:  Solving for Uy, Initial residual = 0.0242247, Final residual = 0.00177018, No Iterations 6
Pressure gradient source: uncorrected Ubar = 1.00058, pressure gradient = 0.586306
GAMG:  Solving for p, Initial residual = 0.00362149, Final residual = 0.00034502, No Iterations 11
time step continuity errors : sum local = 4.53713e-05, global = 4.08273e-19, cumulative = -8.31134e-17
Pressure gradient source: uncorrected Ubar = 1.00003, pressure gradient = 0.799677
smoothSolver:  Solving for omega, Initial residual = 4.21219e-05, Final residual = 7.65846e-06, No Iterations 4
smoothSolver:  Solving for k, Initial residual = 0.00783078, Final residual = 0.000602408, No Iterations 6
ExecutionTime = 0.126653 s  ClockTime = 1 s

Time = 39s

smoothSolver:  Solving for Ux, Initial residual = 0.00755962, Final residual = 0.000606339, No Iterations 5
smoothSolver:  Solving for Uy, Initial residual = 0.0238538, Final residual = 0.00175357, No Iterations 6
Pressure gradient source: uncorrected Ubar = 1.00055, pressure gradient = 0.579956
GAMG:  Solving for p, Initial residual = 0.00328226, Final residual = 0.000314714, No Iterations 11
time step continuity errors : sum local = 4.13566e-05, global = 1.33679e-17, cumulative = -6.97456e-17
Pressure gradient source: uncorrected Ubar = 1.00003, pressure gradient = 0.789447
smoothSolver:  Solving for omega, Initial residual = 4.09637e-05, Final residual = 7.46958e-06, No Iterations 4
smoothSolver:  Solving for k, Initial residual = 0.0077341, Final residual = 0.000601011, No Iterations 6
ExecutionTime = 0.129683 s  ClockTime = 1 s

Time = 40s

smoothSolver:  Solving for Ux, Initial residual = 0.00739791, Final residual = 0.000596379, No Iterations 5
smoothSolver:  Solving for Uy, Initial residual = 0.0234421, Final residual = 0.00173648, No Iterations 6
Pressure gradient source: uncorrected Ubar = 1.00054, pressure gradient = 0.57178
GAMG:  Solving for p, Initial residual = 0.00320375, Final residual = 0.000299258, No Iterations 11
time step continuity errors : sum local = 3.89129e-05, global = 9.92045e-18, cumulative = -5.98251e-17
Pressure gradient source: uncorrected Ubar = 1.00002, pressure gradient = 0.779383
smoothSolver:  Solving for omega, Initial residual = 3.98516e-05, Final residual = 7.27397e-06, No Iterations 4
smoothSolver:  Solving for k, Initial residual = 0.00764768, Final residual = 0.000595705, No Iterations 6
ExecutionTime = 0.132667 s  ClockTime = 1 s

Time = 41s

smoothSolver:  Solving for Ux, Initial residual = 0.00725344, Final residual = 0.000587126, No Iterations 5
smoothSolver:  Solving for Uy, Initial residual = 0.0229644, Final residual = 0.00171194, No Iterations 6
Pressure gradient source: uncorrected Ubar = 1.00052, pressure gradient = 0.565467
GAMG:  Solving for p, Initial residual = 0.00293847, Final residual = 0.000242167, No Iterations 10
time step continuity errors : sum local = 3.07776e-05, global = 9.33599e-18, cumulative = -5.04891e-17
Pressure gradient source: uncorrected Ubar = 1.00002, pressure gradient = 0.7697
smoothSolver:  Solving for omega, Initial residual = 3.88116e-05, Final residual = 7.08668e-06, No Iterations 4
smoothSolver:  Solving for k, Initial residual = 0.00755321, Final residual = 0.00059327, No Iterations 6
ExecutionTime = 0.135594 s  ClockTime = 1 s

Time = 42s

smoothSolver:  Solving for Ux, Initial residual = 0.00711407, Final residual = 0.000578014, No Iterations 5
smoothSolver:  Solving for Uy, Initial residual = 0.0222817, Final residual = 0.00167478, No Iterations 6
Pressure gradient source: uncorrected Ubar = 1.0005, pressure gradient = 0.557937
GAMG:  Solving for p, Initial residual = 0.00276723, Final residual = 0.000267117, No Iterations 10
time step continuity errors : sum local = 3.40883e-05, global = -1.16501e-17, cumulative = -6.21392e-17
Pressure gradient source: uncorrected Ubar = 1.00002, pressure gradient = 0.760204
smoothSolver:  Solving for omega, Initial residual = 3.77964e-05, Final residual = 6.90966e-06, No Iterations 4
smoothSolver:  Solving for k, Initial residual = 0.00748058, Final residual = 0.000589314, No Iterations 6
ExecutionTime = 0.138542 s  ClockTime = 1 s

Time = 43s

smoothSolver:  Solving for Ux, Initial residual = 0.00696468, Final residual = 0.000569085, No Iterations 5
smoothSolver:  Solving for Uy, Initial residual = 0.0216609, Final residual = 0.00164091, No Iterations 6
Pressure gradient source: uncorrected Ubar = 1.00048, pressure gradient = 0.553645
GAMG:  Solving for p, Initial residual = 0.00255427, Final residual = 0.000218425, No Iterations 11
time step continuity errors : sum local = 2.72435e-05, global = -5.31598e-18, cumulative = -6.74552e-17
Pressure gradient source: uncorrected Ubar = 1.00002, pressure gradient = 0.751278
smoothSolver:  Solving for omega, Initial residual = 3.67773e-05, Final residual = 6.72469e-06, No Iterations 4
smoothSolver:  Solving for k, Initial residual = 0.00739937, Final residual = 0.000586376, No Iterations 6
ExecutionTime = 0.141524 s  ClockTime = 1 s

Time = 44s

smoothSolver:  Solving for Ux, Initial residual = 0.00684004, Final residual = 0.000561547, No Iterations 5
smoothSolver:  Solving for Uy, Initial residual = 0.0207175, Final residual = 0.00158219, No Iterations 6
Pressure gradient source: uncorrected Ubar = 1.00046, pressure gradient = 0.54683
GAMG:  Solving for p, Initial residual = 0.00245557, Final residual = 0.000224218, No Iterations 10
time step continuity errors : sum local = 2.75562e-05, global = 7.33531e-18, cumulative = -6.01199e-17
Pressure gradient source: uncorrected Ubar = 1.00002, pressure gradient = 0.742548
smoothSolver:  Solving for omega, Initial residual = 3.57616e-05, Final residual = 9.97502e-06, No Iterations 3
smoothSolver:  Solving for k, Initial residual = 0.00735506, Final residual = 0.000586619, No Iterations 6
ExecutionTime = 0.144442 s  ClockTime = 1 s

Time = 45s

smoothSolver:  Solving for Ux, Initial residual = 0.00673477, Final residual = 0.000555094, No Iterations 5
smoothSolver:  Solving for Uy, Initial residual = 0.0199092, Final residual = 0.00153099, No Iterations 6
Pressure gradient source: uncorrected Ubar = 1.00048, pressure gradient = 0.527285
GAMG:  Solving for p, Initial residual = 0.00229024, Final residual = 0.000166994, No Iterations 11
time step continuity errors : sum local = 2.01373e-05, global = -1.00932e-17, cumulative = -7.02131e-17
Pressure gradient source: uncorrected Ubar = 1.00002, pressure gradient = 0.732434
smoothSolver:  Solving for omega, Initial residual = 3.52075e-05, Final residual = 9.82719e-06, No Iterations 3
smoothSolver:  Solving for k, Initial residual = 0.00732164, Final residual = 0.000586223, No Iterations 6
ExecutionTime = 0.1474 s  ClockTime = 1 s

Time = 46s

smoothSolver:  Solving for Ux, Initial residual = 0.0066306, Final residual = 0.000548816, No Iterations 5
smoothSolver:  Solving for Uy, Initial residual = 0.0190955, Final residual = 0.00147755, No Iterations 6
Pressure gradient source: uncorrected Ubar = 1.00046, pressure gradient = 0.520455
GAMG:  Solving for p, Initial residual = 0.00225146, Final residual = 0.000203556, No Iterations 9
time step continuity errors : sum local = 2.28861e-05, global = 2.36152e-18, cumulative = -6.78516e-17
Pressure gradient source: uncorrected Ubar = 1.00002, pressure gradient = 0.722671
smoothSolver:  Solving for omega, Initial residual = 3.4567e-05, Final residual = 9.65442e-06, No Iterations 3
smoothSolver:  Solving for k, Initial residual = 0.00728696, Final residual = 0.000587208, No Iterations 6
ExecutionTime = 0.15027 s  ClockTime = 1 s

Time = 47s

smoothSolver:  Solving for Ux, Initial residual = 0.00651815, Final residual = 0.000543158, No Iterations 5
smoothSolver:  Solving for Uy, Initial residual = 0.0184622, Final residual = 0.00143672, No Iterations 6
Pressure gradient source: uncorrected Ubar = 1.00044, pressure gradient = 0.513632
GAMG:  Solving for p, Initial residual = 0.00210906, Final residual = 0.000194334, No Iterations 9
time step continuity errors : sum local = 2.08143e-05, global = 6.67293e-18, cumulative = -6.11787e-17
Pressure gradient source: uncorrected Ubar = 1.00002, pressure gradient = 0.71322
smoothSolver:  Solving for omega, Initial residual = 3.39244e-05, Final residual = 9.50061e-06, No Iterations 3
smoothSolver:  Solving for k, Initial residual = 0.00724694, Final residual = 0.000585252, No Iterations 6
ExecutionTime = 0.153138 s  ClockTime = 1 s

Time = 48s

smoothSolver:  Solving for Ux, Initial residual = 0.00642729, Final residual = 0.000537628, No Iterations 5
smoothSolver:  Solving for Uy, Initial residual = 0.0176318, Final residual = 0.00137962, No Iterations 6
Pressure gradient source: uncorrected Ubar = 1.00043, pressure gradient = 0.507222
GAMG:  Solving for p, Initial residual = 0.00203958, Final residual = 0.000178288, No Iterations 9
time step continuity errors : sum local = 1.81698e-05, global = -1.13165e-18, cumulative = -6.23103e-17
Pressure gradient source: uncorrected Ubar = 1.00002, pressure gradient = 0.704104
smoothSolver:  Solving for omega, Initial residual = 3.3245e-05, Final residual = 9.31729e-06, No Iterations 3
smoothSolver:  Solving for k, Initial residual = 0.00721661, Final residual = 0.000585582, No Iterations 6
ExecutionTime = 0.156022 s  ClockTime = 1 s

Time = 49s

smoothSolver:  Solving for Ux, Initial residual = 0.00633496, Final residual = 0.000532286, No Iterations 5
smoothSolver:  Solving for Uy, Initial residual = 0.0168706, Final residual = 0.00132777, No Iterations 6
Pressure gradient source: uncorrected Ubar = 1.00042, pressure gradient = 0.500064
GAMG:  Solving for p, Initial residual = 0.001892, Final residual = 0.000183988, No Iterations 9
time step continuity errors : sum local = 1.74058e-05, global = 9.6223e-18, cumulative = -5.2688e-17
Pressure gradient source: uncorrected Ubar = 1.00002, pressure gradient = 0.695192
smoothSolver:  Solving for omega, Initial residual = 3.26158e-05, Final residual = 9.14704e-06, No Iterations 3
smoothSolver:  Solving for k, Initial residual = 0.00716774, Final residual = 0.000583483, No Iterations 6
ExecutionTime = 0.15889 s  ClockTime = 1 s

Time = 50s

smoothSolver:  Solving for Ux, Initial residual = 0.0062447, Final residual = 0.000527091, No Iterations 5
smoothSolver:  Solving for Uy, Initial residual = 0.016155, Final residual = 0.00127976, No Iterations 6
Pressure gradient source: uncorrected Ubar = 1.0004, pressure gradient = 0.493866
GAMG:  Solving for p, Initial residual = 0.00185166, Final residual = 0.000168706, No Iterations 9
time step continuity errors : sum local = 1.51e-05, global = 3.63378e-18, cumulative = -4.90542e-17
Pressure gradient source: uncorrected Ubar = 1.00002, pressure gradient = 0.686579
smoothSolver:  Solving for omega, Initial residual = 3.19578e-05, Final residual = 8.9723e-06, No Iterations 3
smoothSolver:  Solving for k, Initial residual = 0.00713684, Final residual = 0.0005842, No Iterations 6
ExecutionTime = 0.161779 s  ClockTime = 1 s

Time = 51s

smoothSolver:  Solving for Ux, Initial residual = 0.00615263, Final residual = 0.000522253, No Iterations 5
smoothSolver:  Solving for Uy, Initial residual = 0.0156294, Final residual = 0.00124522, No Iterations 6
Pressure gradient source: uncorrected Ubar = 1.00039, pressure gradient = 0.486342
GAMG:  Solving for p, Initial residual = 0.00177987, Final residual = 0.000166068, No Iterations 9
time step continuity errors : sum local = 1.38825e-05, global = 5.96303e-19, cumulative = -4.84579e-17
Pressure gradient source: uncorrected Ubar = 1.00002, pressure gradient = 0.67807
smoothSolver:  Solving for omega, Initial residual = 3.1329e-05, Final residual = 8.79061e-06, No Iterations 3
smoothSolver:  Solving for k, Initial residual = 0.0070882, Final residual = 0.000580935, No Iterations 6
ExecutionTime = 0.164647 s  ClockTime = 1 s

Time = 52s

smoothSolver:  Solving for Ux, Initial residual = 0.00607315, Final residual = 0.000517522, No Iterations 5
smoothSolver:  Solving for Uy, Initial residual = 0.0150291, Final residual = 0.00120233, No Iterations 6
Pressure gradient source: uncorrected Ubar = 1.00038, pressure gradient = 0.480031
GAMG:  Solving for p, Initial residual = 0.0017323, Final residual = 0.000165817, No Iterations 9
time step continuity errors : sum local = 1.31122e-05, global = 1.66323e-17, cumulative = -3.18256e-17
Pressure gradient source: uncorrected Ubar = 1.00002, pressure gradient = 0.669806
smoothSolver:  Solving for omega, Initial residual = 3.06936e-05, Final residual = 8.63369e-06, No Iterations 3
smoothSolver:  Solving for k, Initial residual = 0.00705356, Final residual = 0.000581868, No Iterations 6
ExecutionTime = 0.167551 s  ClockTime = 1 s

Time = 53s

smoothSolver:  Solving for Ux, Initial residual = 0.0059931, Final residual = 0.000512896, No Iterations 5
smoothSolver:  Solving for Uy, Initial residual = 0.0146207, Final residual = 0.00116718, No Iterations 6
Pressure gradient source: uncorrected Ubar = 1.00037, pressure gradient = 0.472784
GAMG:  Solving for p, Initial residual = 0.00166441, Final residual = 0.000151112, No Iterations 10
time step continuity errors : sum local = 1.12536e-05, global = 1.31629e-18, cumulative = -3.05093e-17
Pressure gradient source: uncorrected Ubar = 1.00002, pressure gradient = 0.66164
smoothSolver:  Solving for omega, Initial residual = 3.00843e-05, Final residual = 8.45221e-06, No Iterations 3
smoothSolver:  Solving for k, Initial residual = 0.00700187, Final residual = 0.00057638, No Iterations 6
ExecutionTime = 0.170443 s  ClockTime = 1 s

Time = 54s

smoothSolver:  Solving for Ux, Initial residual = 0.00591481, Final residual = 0.000508377, No Iterations 5
smoothSolver:  Solving for Uy, Initial residual = 0.0143198, Final residual = 0.00113613, No Iterations 6
Pressure gradient source: uncorrected Ubar = 1.00036, pressure gradient = 0.466235
GAMG:  Solving for p, Initial residual = 0.00160085, Final residual = 0.000155879, No Iterations 10
time step continuity errors : sum local = 1.1904e-05, global = -9.43763e-18, cumulative = -3.99469e-17
Pressure gradient source: uncorrected Ubar = 1.00001, pressure gradient = 0.65365
smoothSolver:  Solving for omega, Initial residual = 2.94688e-05, Final residual = 8.30061e-06, No Iterations 3
smoothSolver:  Solving for k, Initial residual = 0.00696183, Final residual = 0.000576168, No Iterations 6
ExecutionTime = 0.173346 s  ClockTime = 1 s

Time = 55s

smoothSolver:  Solving for Ux, Initial residual = 0.00583955, Final residual = 0.000504155, No Iterations 5
smoothSolver:  Solving for Uy, Initial residual = 0.0140764, Final residual = 0.00110456, No Iterations 6
Pressure gradient source: uncorrected Ubar = 1.00036, pressure gradient = 0.458171
GAMG:  Solving for p, Initial residual = 0.00154204, Final residual = 0.000141179, No Iterations 12
time step continuity errors : sum local = 1.15377e-05, global = 9.32925e-18, cumulative = -3.06177e-17
Pressure gradient source: uncorrected Ubar = 1.00001, pressure gradient = 0.64563
smoothSolver:  Solving for omega, Initial residual = 2.88819e-05, Final residual = 8.12386e-06, No Iterations 3
smoothSolver:  Solving for k, Initial residual = 0.00691022, Final residual = 0.000571075, No Iterations 6
ExecutionTime = 0.176361 s  ClockTime = 1 s

Time = 56s

smoothSolver:  Solving for Ux, Initial residual = 0.00576953, Final residual = 0.000500093, No Iterations 5
smoothSolver:  Solving for Uy, Initial residual = 0.0138717, Final residual = 0.00107195, No Iterations 6
Pressure gradient source: uncorrected Ubar = 1.00035, pressure gradient = 0.451643
GAMG:  Solving for p, Initial residual = 0.00150065, Final residual = 0.000144396, No Iterations 12
time step continuity errors : sum local = 1.18894e-05, global = 4.08079e-18, cumulative = -2.65369e-17
Pressure gradient source: uncorrected Ubar = 1.00001, pressure gradient = 0.63777
smoothSolver:  Solving for omega, Initial residual = 2.8289e-05, Final residual = 7.97942e-06, No Iterations 3
smoothSolver:  Solving for k, Initial residual = 0.00688166, Final residual = 0.000571334, No Iterations 6
ExecutionTime = 0.179378 s  ClockTime = 1 s

Time = 57s

smoothSolver:  Solving for Ux, Initial residual = 0.00569998, Final residual = 0.000496032, No Iterations 5
smoothSolver:  Solving for Uy, Initial residual = 0.0136983, Final residual = 0.00104484, No Iterations 6
Pressure gradient source: uncorrected Ubar = 1.00034, pressure gradient = 0.443835
GAMG:  Solving for p, Initial residual = 0.0015219, Final residual = 0.000149549, No Iterations 12
time step continuity errors : sum local = 1.22298e-05, global = -5.04838e-19, cumulative = -2.70417e-17
Pressure gradient source: uncorrected Ubar = 1.00001, pressure gradient = 0.629895
smoothSolver:  Solving for omega, Initial residual = 2.77084e-05, Final residual = 7.80627e-06, No Iterations 3
smoothSolver:  Solving for k, Initial residual = 0.00682433, Final residual = 0.000565458, No Iterations 6
ExecutionTime = 0.182399 s  ClockTime = 1 s

Time = 58s

smoothSolver:  Solving for Ux, Initial residual = 0.00562575, Final residual = 0.000491984, No Iterations 5
smoothSolver:  Solving for Uy, Initial residual = 0.0136908, Final residual = 0.00102954, No Iterations 6
Pressure gradient source: uncorrected Ubar = 1.00034, pressure gradient = 0.436518
GAMG:  Solving for p, Initial residual = 0.00145924, Final residual = 0.000143088, No Iterations 13
time step continuity errors : sum local = 1.17489e-05, global = -3.09506e-18, cumulative = -3.01368e-17
Pressure gradient source: uncorrected Ubar = 1.00001, pressure gradient = 0.622065
smoothSolver:  Solving for omega, Initial residual = 2.71415e-05, Final residual = 7.67182e-06, No Iterations 3
smoothSolver:  Solving for k, Initial residual = 0.00678802, Final residual = 0.000564211, No Iterations 6
ExecutionTime = 0.185463 s  ClockTime = 1 s

Time = 59s

smoothSolver:  Solving for Ux, Initial residual = 0.00556663, Final residual = 0.000488273, No Iterations 5
smoothSolver:  Solving for Uy, Initial residual = 0.0136417, Final residual = 0.00102636, No Iterations 6
Pressure gradient source: uncorrected Ubar = 1.00033, pressure gradient = 0.428034
GAMG:  Solving for p, Initial residual = 0.00143013, Final residual = 0.000133118, No Iterations 14
time step continuity errors : sum local = 1.10572e-05, global = 1.11114e-17, cumulative = -1.90254e-17
Pressure gradient source: uncorrected Ubar = 1.00001, pressure gradient = 0.614137
smoothSolver:  Solving for omega, Initial residual = 2.65971e-05, Final residual = 7.50201e-06, No Iterations 3
smoothSolver:  Solving for k, Initial residual = 0.00674165, Final residual = 0.000558011, No Iterations 6
ExecutionTime = 0.18859 s  ClockTime = 1 s

Time = 60s

smoothSolver:  Solving for Ux, Initial residual = 0.00550627, Final residual = 0.000484826, No Iterations 5
smoothSolver:  Solving for Uy, Initial residual = 0.0137491, Final residual = 0.00103734, No Iterations 6
Pressure gradient source: uncorrected Ubar = 1.00033, pressure gradient = 0.420463
GAMG:  Solving for p, Initial residual = 0.00135555, Final residual = 0.000134919, No Iterations 14
time step continuity errors : sum local = 1.10684e-05, global = -5.72763e-18, cumulative = -2.4753e-17
Pressure gradient source: uncorrected Ubar = 1.00001, pressure gradient = 0.606232
smoothSolver:  Solving for omega, Initial residual = 2.60644e-05, Final residual = 7.37428e-06, No Iterations 3
smoothSolver:  Solving for k, Initial residual = 0.00670107, Final residual = 0.000556355, No Iterations 6
ExecutionTime = 0.191695 s  ClockTime = 1 s

Time = 61s

smoothSolver:  Solving for Ux, Initial residual = 0.00544638, Final residual = 0.000481486, No Iterations 5
smoothSolver:  Solving for Uy, Initial residual = 0.0139087, Final residual = 0.00105528, No Iterations 6
Pressure gradient source: uncorrected Ubar = 1.00032, pressure gradient = 0.412111
GAMG:  Solving for p, Initial residual = 0.00137137, Final residual = 0.000136815, No Iterations 14
time step continuity errors : sum local = 1.1039e-05, global = -2.03288e-20, cumulative = -2.47734e-17
Pressure gradient source: uncorrected Ubar = 1.00001, pressure gradient = 0.598248
smoothSolver:  Solving for omega, Initial residual = 2.55375e-05, Final residual = 7.21731e-06, No Iterations 3
smoothSolver:  Solving for k, Initial residual = 0.00665931, Final residual = 0.000553335, No Iterations 6
ExecutionTime = 0.194773 s  ClockTime = 1 s

Time = 62s

smoothSolver:  Solving for Ux, Initial residual = 0.00538064, Final residual = 0.000477827, No Iterations 5
smoothSolver:  Solving for Uy, Initial residual = 0.0141214, Final residual = 0.00107018, No Iterations 6
Pressure gradient source: uncorrected Ubar = 1.00032, pressure gradient = 0.403516
GAMG:  Solving for p, Initial residual = 0.00130169, Final residual = 0.000116649, No Iterations 16
time step continuity errors : sum local = 9.5591e-06, global = 1.77894e-17, cumulative = -6.98398e-18
Pressure gradient source: uncorrected Ubar = 1.00001, pressure gradient = 0.590167
smoothSolver:  Solving for omega, Initial residual = 2.50291e-05, Final residual = 7.07765e-06, No Iterations 3
smoothSolver:  Solving for k, Initial residual = 0.00662323, Final residual = 0.000551434, No Iterations 6
ExecutionTime = 0.197989 s  ClockTime = 1 s

Time = 63s

smoothSolver:  Solving for Ux, Initial residual = 0.00532919, Final residual = 0.000474453, No Iterations 5
smoothSolver:  Solving for Uy, Initial residual = 0.0142944, Final residual = 0.00108986, No Iterations 6
Pressure gradient source: uncorrected Ubar = 1.00031, pressure gradient = 0.394487
GAMG:  Solving for p, Initial residual = 0.001278, Final residual = 0.000113347, No Iterations 16
time step continuity errors : sum local = 9.10212e-06, global = 1.41776e-17, cumulative = 7.19365e-18
Pressure gradient source: uncorrected Ubar = 1.00001, pressure gradient = 0.581946
smoothSolver:  Solving for omega, Initial residual = 2.45352e-05, Final residual = 6.96076e-06, No Iterations 3
smoothSolver:  Solving for k, Initial residual = 0.00658144, Final residual = 0.000547506, No Iterations 6
ExecutionTime = 0.201193 s  ClockTime = 1 s

Time = 64s

smoothSolver:  Solving for Ux, Initial residual = 0.00527609, Final residual = 0.000471585, No Iterations 5
smoothSolver:  Solving for Uy, Initial residual = 0.0144449, Final residual = 0.00110335, No Iterations 6
Pressure gradient source: uncorrected Ubar = 1.00031, pressure gradient = 0.38606
GAMG:  Solving for p, Initial residual = 0.00123183, Final residual = 0.000115526, No Iterations 16
time step continuity errors : sum local = 9.09114e-06, global = -1.35136e-17, cumulative = -6.31991e-18
Pressure gradient source: uncorrected Ubar = 1.00001, pressure gradient = 0.573675
smoothSolver:  Solving for omega, Initial residual = 2.40483e-05, Final residual = 6.81418e-06, No Iterations 3
smoothSolver:  Solving for k, Initial residual = 0.0065507, Final residual = 0.00054769, No Iterations 6
ExecutionTime = 0.204391 s  ClockTime = 1 s

Time = 65s

smoothSolver:  Solving for Ux, Initial residual = 0.00522466, Final residual = 0.000468773, No Iterations 5
smoothSolver:  Solving for Uy, Initial residual = 0.0145936, Final residual = 0.00111835, No Iterations 6
Pressure gradient source: uncorrected Ubar = 1.00031, pressure gradient = 0.376501
GAMG:  Solving for p, Initial residual = 0.00122532, Final residual = 0.000115877, No Iterations 16
time step continuity errors : sum local = 8.96314e-06, global = -1.37202e-17, cumulative = -2.00401e-17
Pressure gradient source: uncorrected Ubar = 1.00001, pressure gradient = 0.565218
smoothSolver:  Solving for omega, Initial residual = 2.35904e-05, Final residual = 6.69485e-06, No Iterations 3
smoothSolver:  Solving for k, Initial residual = 0.00650738, Final residual = 0.000543063, No Iterations 6
ExecutionTime = 0.20776 s  ClockTime = 1 s

Time = 66s

smoothSolver:  Solving for Ux, Initial residual = 0.00516683, Final residual = 0.000465597, No Iterations 5
smoothSolver:  Solving for Uy, Initial residual = 0.0147208, Final residual = 0.00113054, No Iterations 6
Pressure gradient source: uncorrected Ubar = 1.0003, pressure gradient = 0.367309
GAMG:  Solving for p, Initial residual = 0.00118016, Final residual = 0.00011674, No Iterations 16
time step continuity errors : sum local = 8.8815e-06, global = -1.89989e-18, cumulative = -2.194e-17
Pressure gradient source: uncorrected Ubar = 1.00001, pressure gradient = 0.556646
smoothSolver:  Solving for omega, Initial residual = 2.31468e-05, Final residual = 9.98914e-06, No Iterations 2
smoothSolver:  Solving for k, Initial residual = 0.00650112, Final residual = 0.000544644, No Iterations 6
ExecutionTime = 0.211324 s  ClockTime = 1 s

Time = 67s

smoothSolver:  Solving for Ux, Initial residual = 0.00513125, Final residual = 0.000463355, No Iterations 5
smoothSolver:  Solving for Uy, Initial residual = 0.014867, Final residual = 0.00114613, No Iterations 6
Pressure gradient source: uncorrected Ubar = 1.00032, pressure gradient = 0.343312
GAMG:  Solving for p, Initial residual = 0.00122842, Final residual = 0.000117013, No Iterations 16
time step continuity errors : sum local = 8.72185e-06, global = 1.07624e-17, cumulative = -1.11776e-17
Pressure gradient source: uncorrected Ubar = 1.00002, pressure gradient = 0.546097
smoothSolver:  Solving for omega, Initial residual = 2.30308e-05, Final residual = 9.92934e-06, No Iterations 2
smoothSolver:  Solving for k, Initial residual = 0.00650344, Final residual = 0.000544495, No Iterations 6
ExecutionTime = 0.214686 s  ClockTime = 1 s

Time = 68s

smoothSolver:  Solving for Ux, Initial residual = 0.00509355, Final residual = 0.00046183, No Iterations 5
smoothSolver:  Solving for Uy, Initial residual = 0.0150155, Final residual = 0.00115979, No Iterations 6
Pressure gradient source: uncorrected Ubar = 1.00032, pressure gradient = 0.332731
GAMG:  Solving for p, Initial residual = 0.0011692, Final residual = 0.000102585, No Iterations 18
time step continuity errors : sum local = 7.64472e-06, global = -6.91264e-18, cumulative = -1.80903e-17
Pressure gradient source: uncorrected Ubar = 1.00002, pressure gradient = 0.535504
smoothSolver:  Solving for omega, Initial residual = 2.2884e-05, Final residual = 9.87204e-06, No Iterations 2
smoothSolver:  Solving for k, Initial residual = 0.00651108, Final residual = 0.000547022, No Iterations 6
ExecutionTime = 0.218088 s  ClockTime = 1 s

Time = 69s

smoothSolver:  Solving for Ux, Initial residual = 0.00504195, Final residual = 0.000459853, No Iterations 5
smoothSolver:  Solving for Uy, Initial residual = 0.0150816, Final residual = 0.00116857, No Iterations 6
Pressure gradient source: uncorrected Ubar = 1.00031, pressure gradient = 0.320807
GAMG:  Solving for p, Initial residual = 0.00125476, Final residual = 0.000114002, No Iterations 16
time step continuity errors : sum local = 8.1283e-06, global = -9.28264e-18, cumulative = -2.73729e-17
Pressure gradient source: uncorrected Ubar = 1.00002, pressure gradient = 0.524702
smoothSolver:  Solving for omega, Initial residual = 2.27313e-05, Final residual = 9.81989e-06, No Iterations 2
smoothSolver:  Solving for k, Initial residual = 0.0065112, Final residual = 0.000546322, No Iterations 6
ExecutionTime = 0.221318 s  ClockTime = 1 s

Time = 70s

smoothSolver:  Solving for Ux, Initial residual = 0.00500917, Final residual = 0.000457926, No Iterations 5
smoothSolver:  Solving for Uy, Initial residual = 0.0152486, Final residual = 0.00118421, No Iterations 6
Pressure gradient source: uncorrected Ubar = 1.00031, pressure gradient = 0.309096
GAMG:  Solving for p, Initial residual = 0.00114815, Final residual = 0.000101071, No Iterations 18
time step continuity errors : sum local = 7.20275e-06, global = -3.96242e-18, cumulative = -3.13353e-17
Pressure gradient source: uncorrected Ubar = 1.00002, pressure gradient = 0.513744
smoothSolver:  Solving for omega, Initial residual = 2.25948e-05, Final residual = 9.77024e-06, No Iterations 2
smoothSolver:  Solving for k, Initial residual = 0.00651569, Final residual = 0.000549313, No Iterations 6
ExecutionTime = 0.224597 s  ClockTime = 1 s

Time = 71s

smoothSolver:  Solving for Ux, Initial residual = 0.00497449, Final residual = 0.000456282, No Iterations 5
smoothSolver:  Solving for Uy, Initial residual = 0.0153709, Final residual = 0.00119761, No Iterations 6
Pressure gradient source: uncorrected Ubar = 1.00031, pressure gradient = 0.296929
GAMG:  Solving for p, Initial residual = 0.00120217, Final residual = 0.000115351, No Iterations 16
time step continuity errors : sum local = 7.88238e-06, global = -2.12775e-18, cumulative = -3.34631e-17
Pressure gradient source: uncorrected Ubar = 1.00002, pressure gradient = 0.502589
smoothSolver:  Solving for omega, Initial residual = 2.24734e-05, Final residual = 9.72183e-06, No Iterations 2
smoothSolver:  Solving for k, Initial residual = 0.00650976, Final residual = 0.000547538, No Iterations 6
ExecutionTime = 0.227812 s  ClockTime = 1 s

Time = 72s

smoothSolver:  Solving for Ux, Initial residual = 0.00492286, Final residual = 0.000454673, No Iterations 5
smoothSolver:  Solving for Uy, Initial residual = 0.0154738, Final residual = 0.00120756, No Iterations 6
Pressure gradient source: uncorrected Ubar = 1.0003, pressure gradient = 0.285145
GAMG:  Solving for p, Initial residual = 0.00113869, Final residual = 0.000104253, No Iterations 18
time step continuity errors : sum local = 7.11637e-06, global = 1.74997e-18, cumulative = -3.17131e-17
Pressure gradient source: uncorrected Ubar = 1.00002, pressure gradient = 0.49131
smoothSolver:  Solving for omega, Initial residual = 2.23333e-05, Final residual = 9.66485e-06, No Iterations 2
smoothSolver:  Solving for k, Initial residual = 0.00651508, Final residual = 0.000550395, No Iterations 6
ExecutionTime = 0.2311 s  ClockTime = 1 s

Time = 73s

smoothSolver:  Solving for Ux, Initial residual = 0.00489333, Final residual = 0.000453174, No Iterations 5
smoothSolver:  Solving for Uy, Initial residual = 0.0156025, Final residual = 0.00122148, No Iterations 6
Pressure gradient source: uncorrected Ubar = 1.0003, pressure gradient = 0.272505
GAMG:  Solving for p, Initial residual = 0.00120377, Final residual = 0.000118333, No Iterations 16
time step continuity errors : sum local = 7.74613e-06, global = -4.20213e-18, cumulative = -3.59152e-17
Pressure gradient source: uncorrected Ubar = 1.00002, pressure gradient = 0.479812
smoothSolver:  Solving for omega, Initial residual = 2.21823e-05, Final residual = 9.60818e-06, No Iterations 2
smoothSolver:  Solving for k, Initial residual = 0.00650309, Final residual = 0.000548556, No Iterations 6
ExecutionTime = 0.234345 s  ClockTime = 1 s

Time = 74s

smoothSolver:  Solving for Ux, Initial residual = 0.00486289, Final residual = 0.000451824, No Iterations 5
smoothSolver:  Solving for Uy, Initial residual = 0.0156995, Final residual = 0.00123147, No Iterations 6
Pressure gradient source: uncorrected Ubar = 1.0003, pressure gradient = 0.260477
GAMG:  Solving for p, Initial residual = 0.00110142, Final residual = 0.000106805, No Iterations 18
time step continuity errors : sum local = 6.97194e-06, global = 1.76183e-19, cumulative = -3.57391e-17
Pressure gradient source: uncorrected Ubar = 1.00002, pressure gradient = 0.468198
smoothSolver:  Solving for omega, Initial residual = 2.20118e-05, Final residual = 9.54212e-06, No Iterations 2
smoothSolver:  Solving for k, Initial residual = 0.0065033, Final residual = 0.000550576, No Iterations 6
ExecutionTime = 0.237659 s  ClockTime = 1 s

Time = 75s

smoothSolver:  Solving for Ux, Initial residual = 0.00481283, Final residual = 0.000449993, No Iterations 5
smoothSolver:  Solving for Uy, Initial residual = 0.0157391, Final residual = 0.00123764, No Iterations 6
Pressure gradient source: uncorrected Ubar = 1.00029, pressure gradient = 0.248313
GAMG:  Solving for p, Initial residual = 0.00121515, Final residual = 0.000120133, No Iterations 16
time step continuity errors : sum local = 7.5154e-06, global = 8.68378e-18, cumulative = -2.70553e-17
Pressure gradient source: uncorrected Ubar = 1.00002, pressure gradient = 0.456466
smoothSolver:  Solving for omega, Initial residual = 2.18269e-05, Final residual = 9.46973e-06, No Iterations 2
smoothSolver:  Solving for k, Initial residual = 0.00649298, Final residual = 0.000548913, No Iterations 6
ExecutionTime = 0.240857 s  ClockTime = 1 s

Time = 76s

smoothSolver:  Solving for Ux, Initial residual = 0.00478428, Final residual = 0.000448717, No Iterations 5
smoothSolver:  Solving for Uy, Initial residual = 0.0158472, Final residual = 0.00124915, No Iterations 6
Pressure gradient source: uncorrected Ubar = 1.00029, pressure gradient = 0.236364
GAMG:  Solving for p, Initial residual = 0.00110286, Final residual = 0.000108074, No Iterations 18
time step continuity errors : sum local = 6.72589e-06, global = -1.17915e-17, cumulative = -3.88468e-17
Pressure gradient source: uncorrected Ubar = 1.00002, pressure gradient = 0.444654
smoothSolver:  Solving for omega, Initial residual = 2.16334e-05, Final residual = 9.38554e-06, No Iterations 2
smoothSolver:  Solving for k, Initial residual = 0.00648877, Final residual = 0.000550799, No Iterations 6
ExecutionTime = 0.24415 s  ClockTime = 1 s

Time = 77s

smoothSolver:  Solving for Ux, Initial residual = 0.00475675, Final residual = 0.000447632, No Iterations 5
smoothSolver:  Solving for Uy, Initial residual = 0.0159098, Final residual = 0.00125714, No Iterations 6
Pressure gradient source: uncorrected Ubar = 1.00029, pressure gradient = 0.223621
GAMG:  Solving for p, Initial residual = 0.00119207, Final residual = 0.000104042, No Iterations 18
time step continuity errors : sum local = 6.30895e-06, global = -9.88826e-18, cumulative = -4.87351e-17
Pressure gradient source: uncorrected Ubar = 1.00002, pressure gradient = 0.43267
smoothSolver:  Solving for omega, Initial residual = 2.14282e-05, Final residual = 9.31032e-06, No Iterations 2
smoothSolver:  Solving for k, Initial residual = 0.00647312, Final residual = 0.00054836, No Iterations 6
ExecutionTime = 0.247507 s  ClockTime = 1 s

Time = 78s

smoothSolver:  Solving for Ux, Initial residual = 0.00470976, Final residual = 0.000446134, No Iterations 5
smoothSolver:  Solving for Uy, Initial residual = 0.0159517, Final residual = 0.00126273, No Iterations 6
Pressure gradient source: uncorrected Ubar = 1.00028, pressure gradient = 0.211829
GAMG:  Solving for p, Initial residual = 0.00110548, Final residual = 0.000105484, No Iterations 18
time step continuity errors : sum local = 6.24547e-06, global = -1.31231e-17, cumulative = -6.18582e-17
Pressure gradient source: uncorrected Ubar = 1.00002, pressure gradient = 0.420657
smoothSolver:  Solving for omega, Initial residual = 2.12216e-05, Final residual = 9.21821e-06, No Iterations 2
smoothSolver:  Solving for k, Initial residual = 0.00646932, Final residual = 0.00055003, No Iterations 6
ExecutionTime = 0.250769 s  ClockTime = 1 s

Time = 79s

smoothSolver:  Solving for Ux, Initial residual = 0.00468079, Final residual = 0.000444834, No Iterations 5
smoothSolver:  Solving for Uy, Initial residual = 0.0160161, Final residual = 0.00127073, No Iterations 6
Pressure gradient source: uncorrected Ubar = 1.00028, pressure gradient = 0.199712
GAMG:  Solving for p, Initial residual = 0.00116361, Final residual = 0.000101404, No Iterations 18
time step continuity errors : sum local = 5.85579e-06, global = -4.59092e-18, cumulative = -6.64491e-17
Pressure gradient source: uncorrected Ubar = 1.00002, pressure gradient = 0.408573
smoothSolver:  Solving for omega, Initial residual = 2.10139e-05, Final residual = 9.13544e-06, No Iterations 2
smoothSolver:  Solving for k, Initial residual = 0.00644974, Final residual = 0.000547831, No Iterations 6
ExecutionTime = 0.254068 s  ClockTime = 1 s

Time = 80s

smoothSolver:  Solving for Ux, Initial residual = 0.00465582, Final residual = 0.000443666, No Iterations 5
smoothSolver:  Solving for Uy, Initial residual = 0.0160195, Final residual = 0.00127305, No Iterations 6
Pressure gradient source: uncorrected Ubar = 1.00028, pressure gradient = 0.188014
GAMG:  Solving for p, Initial residual = 0.00112689, Final residual = 0.000102231, No Iterations 18
time step continuity errors : sum local = 5.76102e-06, global = -1.19872e-17, cumulative = -7.84363e-17
Pressure gradient source: uncorrected Ubar = 1.00002, pressure gradient = 0.396478
smoothSolver:  Solving for omega, Initial residual = 2.07966e-05, Final residual = 9.03885e-06, No Iterations 2
smoothSolver:  Solving for k, Initial residual = 0.0064419, Final residual = 0.00054875, No Iterations 6
ExecutionTime = 0.257374 s  ClockTime = 1 s

Time = 81s

smoothSolver:  Solving for Ux, Initial residual = 0.00461528, Final residual = 0.000442452, No Iterations 5
smoothSolver:  Solving for Uy, Initial residual = 0.0160957, Final residual = 0.0012819, No Iterations 6
Pressure gradient source: uncorrected Ubar = 1.00027, pressure gradient = 0.175719
GAMG:  Solving for p, Initial residual = 0.00118924, Final residual = 0.000113936, No Iterations 16
time step continuity errors : sum local = 6.15076e-06, global = 2.29122e-18, cumulative = -7.61451e-17
Pressure gradient source: uncorrected Ubar = 1.00002, pressure gradient = 0.384299
smoothSolver:  Solving for omega, Initial residual = 2.0582e-05, Final residual = 8.95118e-06, No Iterations 2
smoothSolver:  Solving for k, Initial residual = 0.0064246, Final residual = 0.000546825, No Iterations 6
ExecutionTime = 0.260572 s  ClockTime = 1 s

Time = 82s

smoothSolver:  Solving for Ux, Initial residual = 0.00458695, Final residual = 0.000441529, No Iterations 5
smoothSolver:  Solving for Uy, Initial residual = 0.0161522, Final residual = 0.00128877, No Iterations 6
Pressure gradient source: uncorrected Ubar = 1.00027, pressure gradient = 0.164242
GAMG:  Solving for p, Initial residual = 0.00109305, Final residual = 0.000102699, No Iterations 18
time step continuity errors : sum local = 5.51227e-06, global = 1.56447e-18, cumulative = -7.45806e-17
Pressure gradient source: uncorrected Ubar = 1.00001, pressure gradient = 0.372148
smoothSolver:  Solving for omega, Initial residual = 2.0364e-05, Final residual = 8.8514e-06, No Iterations 2
smoothSolver:  Solving for k, Initial residual = 0.00641138, Final residual = 0.000547093, No Iterations 6
ExecutionTime = 0.263881 s  ClockTime = 1 s

Time = 83s

smoothSolver:  Solving for Ux, Initial residual = 0.00456298, Final residual = 0.000440682, No Iterations 5
smoothSolver:  Solving for Uy, Initial residual = 0.0161998, Final residual = 0.00129431, No Iterations 6
Pressure gradient source: uncorrected Ubar = 1.00027, pressure gradient = 0.152677
GAMG:  Solving for p, Initial residual = 0.00116675, Final residual = 0.000114661, No Iterations 16
time step continuity errors : sum local = 5.90339e-06, global = -3.43387e-18, cumulative = -7.80145e-17
Pressure gradient source: uncorrected Ubar = 1.00001, pressure gradient = 0.360007
smoothSolver:  Solving for omega, Initial residual = 2.01498e-05, Final residual = 8.76387e-06, No Iterations 2
smoothSolver:  Solving for k, Initial residual = 0.00638872, Final residual = 0.00054461, No Iterations 6
ExecutionTime = 0.26708 s  ClockTime = 1 s

Time = 84s

smoothSolver:  Solving for Ux, Initial residual = 0.00452893, Final residual = 0.000439532, No Iterations 5
smoothSolver:  Solving for Uy, Initial residual = 0.0162529, Final residual = 0.00130088, No Iterations 6
Pressure gradient source: uncorrected Ubar = 1.00026, pressure gradient = 0.141589
GAMG:  Solving for p, Initial residual = 0.00107832, Final residual = 0.000102195, No Iterations 18
time step continuity errors : sum local = 5.22562e-06, global = 3.07134e-18, cumulative = -7.49431e-17
Pressure gradient source: uncorrected Ubar = 1.00001, pressure gradient = 0.347937
smoothSolver:  Solving for omega, Initial residual = 1.99348e-05, Final residual = 8.66352e-06, No Iterations 2
smoothSolver:  Solving for k, Initial residual = 0.00637901, Final residual = 0.000545411, No Iterations 6
ExecutionTime = 0.270369 s  ClockTime = 1 s

Time = 85s

smoothSolver:  Solving for Ux, Initial residual = 0.00450401, Final residual = 0.000438547, No Iterations 5
smoothSolver:  Solving for Uy, Initial residual = 0.0162931, Final residual = 0.00130576, No Iterations 6
Pressure gradient source: uncorrected Ubar = 1.00026, pressure gradient = 0.12958
GAMG:  Solving for p, Initial residual = 0.00105958, Final residual = 9.99622e-05, No Iterations 18
time step continuity errors : sum local = 4.98145e-06, global = -9.22758e-18, cumulative = -8.41707e-17
Pressure gradient source: uncorrected Ubar = 1.00001, pressure gradient = 0.335808
smoothSolver:  Solving for omega, Initial residual = 1.9715e-05, Final residual = 8.57622e-06, No Iterations 2
smoothSolver:  Solving for k, Initial residual = 0.0063544, Final residual = 0.000542753, No Iterations 6
ExecutionTime = 0.273686 s  ClockTime = 1 s

Time = 86s

smoothSolver:  Solving for Ux, Initial residual = 0.00448112, Final residual = 0.000437698, No Iterations 5
smoothSolver:  Solving for Uy, Initial residual = 0.0163395, Final residual = 0.0013114, No Iterations 6
Pressure gradient source: uncorrected Ubar = 1.00025, pressure gradient = 0.11876
GAMG:  Solving for p, Initial residual = 0.00106469, Final residual = 0.000103374, No Iterations 18
time step continuity errors : sum local = 5.03359e-06, global = -5.55399e-18, cumulative = -8.97247e-17
Pressure gradient source: uncorrected Ubar = 1.00001, pressure gradient = 0.323779
smoothSolver:  Solving for omega, Initial residual = 1.95046e-05, Final residual = 8.47787e-06, No Iterations 2
smoothSolver:  Solving for k, Initial residual = 0.00633794, Final residual = 0.000542611, No Iterations 6
ExecutionTime = 0.276979 s  ClockTime = 1 s

Time = 87s

smoothSolver:  Solving for Ux, Initial residual = 0.00445389, Final residual = 0.000436787, No Iterations 5
smoothSolver:  Solving for Uy, Initial residual = 0.0164007, Final residual = 0.00131774, No Iterations 6
Pressure gradient source: uncorrected Ubar = 1.00025, pressure gradient = 0.108428
GAMG:  Solving for p, Initial residual = 0.00107342, Final residual = 9.77435e-05, No Iterations 18
time step continuity errors : sum local = 4.63462e-06, global = 7.75967e-18, cumulative = -8.1965e-17
Pressure gradient source: uncorrected Ubar = 1.00001, pressure gradient = 0.311899
smoothSolver:  Solving for omega, Initial residual = 1.9302e-05, Final residual = 8.38827e-06, No Iterations 2
smoothSolver:  Solving for k, Initial residual = 0.00631494, Final residual = 0.000540116, No Iterations 6
ExecutionTime = 0.280277 s  ClockTime = 1 s

Time = 88s

smoothSolver:  Solving for Ux, Initial residual = 0.00443118, Final residual = 0.000436079, No Iterations 5
smoothSolver:  Solving for Uy, Initial residual = 0.0164163, Final residual = 0.00132081, No Iterations 6
Pressure gradient source: uncorrected Ubar = 1.00025, pressure gradient = 0.0979288
GAMG:  Solving for p, Initial residual = 0.000991035, Final residual = 9.56491e-05, No Iterations 18
time step continuity errors : sum local = 4.4013e-06, global = 6.8669e-18, cumulative = -7.50981e-17
Pressure gradient source: uncorrected Ubar = 1.00001, pressure gradient = 0.300127
smoothSolver:  Solving for omega, Initial residual = 1.90927e-05, Final residual = 8.29512e-06, No Iterations 2
smoothSolver:  Solving for k, Initial residual = 0.0062971, Final residual = 0.000539796, No Iterations 6
ExecutionTime = 0.283576 s  ClockTime = 1 s

Time = 89s

smoothSolver:  Solving for Ux, Initial residual = 0.00441086, Final residual = 0.000435471, No Iterations 5
smoothSolver:  Solving for Uy, Initial residual = 0.0164718, Final residual = 0.00132671, No Iterations 6
Pressure gradient source: uncorrected Ubar = 1.00024, pressure gradient = 0.0868352
[...]
smoothSolver:  Solving for k, Initial residual = 1.0238e-05, Final residual = 6.46667e-06, No Iterations 1
ExecutionTime = 12.1539 s  ClockTime = 13 s

Time = 4526s

smoothSolver:  Solving for Ux, Initial residual = 1.39611e-06, Final residual = 1.39611e-06, No Iterations 0
smoothSolver:  Solving for Uy, Initial residual = 0.000296612, Final residual = 2.69551e-05, No Iterations 3
Pressure gradient source: uncorrected Ubar = 1, pressure gradient = 0.00784059
GAMG:  Solving for p, Initial residual = 0.000176393, Final residual = 1.66334e-05, No Iterations 3
time step continuity errors : sum local = 3.04524e-11, global = 4.92593e-19, cumulative = 3.78059e-16
Pressure gradient source: uncorrected Ubar = 1, pressure gradient = 0.00784057
smoothSolver:  Solving for omega, Initial residual = 4.71586e-06, Final residual = 4.71586e-06, No Iterations 0
smoothSolver:  Solving for k, Initial residual = 1.02346e-05, Final residual = 6.49082e-06, No Iterations 1
ExecutionTime = 12.1562 s  ClockTime = 13 s

Time = 4527s

smoothSolver:  Solving for Ux, Initial residual = 1.40064e-06, Final residual = 1.40064e-06, No Iterations 0
smoothSolver:  Solving for Uy, Initial residual = 0.000292191, Final residual = 2.91455e-05, No Iterations 3
Pressure gradient source: uncorrected Ubar = 1, pressure gradient = 0.00784057
GAMG:  Solving for p, Initial residual = 0.000154439, Final residual = 1.46867e-05, No Iterations 3
time step continuity errors : sum local = 2.70859e-11, global = 1.31681e-18, cumulative = 3.79376e-16
Pressure gradient source: uncorrected Ubar = 1, pressure gradient = 0.00784054
smoothSolver:  Solving for omega, Initial residual = 4.71586e-06, Final residual = 4.71586e-06, No Iterations 0
smoothSolver:  Solving for k, Initial residual = 1.02145e-05, Final residual = 6.45209e-06, No Iterations 1
ExecutionTime = 12.1585 s  ClockTime = 13 s

Time = 4528s

smoothSolver:  Solving for Ux, Initial residual = 1.40524e-06, Final residual = 1.40524e-06, No Iterations 0
smoothSolver:  Solving for Uy, Initial residual = 0.000284876, Final residual = 2.78113e-05, No Iterations 3
Pressure gradient source: uncorrected Ubar = 1, pressure gradient = 0.00784054
GAMG:  Solving for p, Initial residual = 0.000160611, Final residual = 5.71546e-06, No Iterations 4
time step continuity errors : sum local = 1.0994e-11, global = 2.74214e-18, cumulative = 3.82118e-16
Pressure gradient source: uncorrected Ubar = 1, pressure gradient = 0.00784052
smoothSolver:  Solving for omega, Initial residual = 4.71586e-06, Final residual = 4.71586e-06, No Iterations 0
smoothSolver:  Solving for k, Initial residual = 1.02104e-05, Final residual = 6.47444e-06, No Iterations 1
ExecutionTime = 12.1609 s  ClockTime = 13 s

Time = 4529s

smoothSolver:  Solving for Ux, Initial residual = 1.40984e-06, Final residual = 1.40984e-06, No Iterations 0
smoothSolver:  Solving for Uy, Initial residual = 0.000296745, Final residual = 1.88907e-05, No Iterations 4
Pressure gradient source: uncorrected Ubar = 1, pressure gradient = 0.00784052
GAMG:  Solving for p, Initial residual = 0.00014941, Final residual = 7.86286e-06, No Iterations 4
time step continuity errors : sum local = 1.49318e-11, global = 4.87071e-18, cumulative = 3.86988e-16
Pressure gradient source: uncorrected Ubar = 1, pressure gradient = 0.0078405
smoothSolver:  Solving for omega, Initial residual = 4.71586e-06, Final residual = 4.71586e-06, No Iterations 0
smoothSolver:  Solving for k, Initial residual = 1.01906e-05, Final residual = 6.4367e-06, No Iterations 1
ExecutionTime = 12.1633 s  ClockTime = 13 s

Time = 4530s

smoothSolver:  Solving for Ux, Initial residual = 1.41458e-06, Final residual = 1.41458e-06, No Iterations 0
smoothSolver:  Solving for Uy, Initial residual = 0.000271712, Final residual = 2.70658e-05, No Iterations 3
Pressure gradient source: uncorrected Ubar = 1, pressure gradient = 0.0078405
GAMG:  Solving for p, Initial residual = 0.000152515, Final residual = 5.96841e-06, No Iterations 4
time step continuity errors : sum local = 1.14527e-11, global = 3.33858e-18, cumulative = 3.90327e-16
Pressure gradient source: uncorrected Ubar = 1, pressure gradient = 0.00784048
smoothSolver:  Solving for omega, Initial residual = 4.71586e-06, Final residual = 4.71586e-06, No Iterations 0
smoothSolver:  Solving for k, Initial residual = 1.01873e-05, Final residual = 6.46151e-06, No Iterations 1
ExecutionTime = 12.1657 s  ClockTime = 13 s

Time = 4531s

smoothSolver:  Solving for Ux, Initial residual = 1.41923e-06, Final residual = 1.41923e-06, No Iterations 0
smoothSolver:  Solving for Uy, Initial residual = 0.000284334, Final residual = 1.70491e-05, No Iterations 4
Pressure gradient source: uncorrected Ubar = 1, pressure gradient = 0.00784048
GAMG:  Solving for p, Initial residual = 0.000152732, Final residual = 7.57341e-06, No Iterations 4
time step continuity errors : sum local = 1.44418e-11, global = -4.60605e-18, cumulative = 3.85721e-16
Pressure gradient source: uncorrected Ubar = 1, pressure gradient = 0.00784045
smoothSolver:  Solving for omega, Initial residual = 4.71585e-06, Final residual = 4.71585e-06, No Iterations 0
smoothSolver:  Solving for k, Initial residual = 1.01666e-05, Final residual = 6.42136e-06, No Iterations 1
ExecutionTime = 12.1681 s  ClockTime = 13 s

Time = 4532s

smoothSolver:  Solving for Ux, Initial residual = 1.42393e-06, Final residual = 1.42393e-06, No Iterations 0
smoothSolver:  Solving for Uy, Initial residual = 0.000261572, Final residual = 1.65518e-05, No Iterations 4
Pressure gradient source: uncorrected Ubar = 1, pressure gradient = 0.00784045
GAMG:  Solving for p, Initial residual = 0.000147055, Final residual = 5.24091e-06, No Iterations 4
time step continuity errors : sum local = 1.03423e-11, global = -1.98233e-18, cumulative = 3.83739e-16
Pressure gradient source: uncorrected Ubar = 1, pressure gradient = 0.00784043
smoothSolver:  Solving for omega, Initial residual = 4.71585e-06, Final residual = 4.71585e-06, No Iterations 0
smoothSolver:  Solving for k, Initial residual = 1.01617e-05, Final residual = 6.44105e-06, No Iterations 1
ExecutionTime = 12.1704 s  ClockTime = 13 s

Time = 4533s

smoothSolver:  Solving for Ux, Initial residual = 1.42856e-06, Final residual = 1.42856e-06, No Iterations 0
smoothSolver:  Solving for Uy, Initial residual = 0.000284529, Final residual = 2.03866e-05, No Iterations 4
Pressure gradient source: uncorrected Ubar = 1, pressure gradient = 0.00784043
GAMG:  Solving for p, Initial residual = 0.000133723, Final residual = 8.88904e-06, No Iterations 4
time step continuity errors : sum local = 1.67151e-11, global = 3.7286e-19, cumulative = 3.84111e-16
Pressure gradient source: uncorrected Ubar = 1, pressure gradient = 0.00784041
smoothSolver:  Solving for omega, Initial residual = 4.71585e-06, Final residual = 4.71585e-06, No Iterations 0
smoothSolver:  Solving for k, Initial residual = 1.01437e-05, Final residual = 6.40939e-06, No Iterations 1
ExecutionTime = 12.1728 s  ClockTime = 13 s

Time = 4534s

smoothSolver:  Solving for Ux, Initial residual = 1.43324e-06, Final residual = 1.43324e-06, No Iterations 0
smoothSolver:  Solving for Uy, Initial residual = 0.000263133, Final residual = 1.67928e-05, No Iterations 4
Pressure gradient source: uncorrected Ubar = 1, pressure gradient = 0.00784041
GAMG:  Solving for p, Initial residual = 0.000141118, Final residual = 5.87082e-06, No Iterations 4
time step continuity errors : sum local = 1.12276e-11, global = -6.39439e-18, cumulative = 3.77717e-16
Pressure gradient source: uncorrected Ubar = 1, pressure gradient = 0.00784039
smoothSolver:  Solving for omega, Initial residual = 4.71585e-06, Final residual = 4.71585e-06, No Iterations 0
smoothSolver:  Solving for k, Initial residual = 1.01375e-05, Final residual = 6.42526e-06, No Iterations 1
ExecutionTime = 12.1752 s  ClockTime = 13 s

Time = 4535s

smoothSolver:  Solving for Ux, Initial residual = 1.43783e-06, Final residual = 1.43783e-06, No Iterations 0
smoothSolver:  Solving for Uy, Initial residual = 0.000284414, Final residual = 1.9184e-05, No Iterations 4
Pressure gradient source: uncorrected Ubar = 1, pressure gradient = 0.00784039
GAMG:  Solving for p, Initial residual = 0.000134739, Final residual = 7.96762e-06, No Iterations 4
time step continuity errors : sum local = 1.50041e-11, global = 4.39298e-19, cumulative = 3.78156e-16
Pressure gradient source: uncorrected Ubar = 1, pressure gradient = 0.00784037
smoothSolver:  Solving for omega, Initial residual = 4.71585e-06, Final residual = 4.71585e-06, No Iterations 0
smoothSolver:  Solving for k, Initial residual = 1.01194e-05, Final residual = 6.39373e-06, No Iterations 1
ExecutionTime = 12.1777 s  ClockTime = 13 s

Time = 4536s

smoothSolver:  Solving for Ux, Initial residual = 1.44249e-06, Final residual = 1.44249e-06, No Iterations 0
smoothSolver:  Solving for Uy, Initial residual = 0.000265354, Final residual = 1.69103e-05, No Iterations 4
Pressure gradient source: uncorrected Ubar = 1, pressure gradient = 0.00784037
GAMG:  Solving for p, Initial residual = 0.000139321, Final residual = 7.36764e-06, No Iterations 4
time step continuity errors : sum local = 1.40971e-11, global = 5.60359e-18, cumulative = 3.8376e-16
Pressure gradient source: uncorrected Ubar = 1, pressure gradient = 0.00784034
smoothSolver:  Solving for omega, Initial residual = 4.71585e-06, Final residual = 4.71585e-06, No Iterations 0
smoothSolver:  Solving for k, Initial residual = 1.01133e-05, Final residual = 6.40976e-06, No Iterations 1
ExecutionTime = 12.18 s  ClockTime = 13 s

Time = 4537s

smoothSolver:  Solving for Ux, Initial residual = 1.44706e-06, Final residual = 1.44706e-06, No Iterations 0
smoothSolver:  Solving for Uy, Initial residual = 0.000281692, Final residual = 1.91647e-05, No Iterations 4
Pressure gradient source: uncorrected Ubar = 1, pressure gradient = 0.00784034
GAMG:  Solving for p, Initial residual = 0.000133813, Final residual = 8.2806e-06, No Iterations 4
time step continuity errors : sum local = 1.54174e-11, global = -1.33281e-18, cumulative = 3.82427e-16
Pressure gradient source: uncorrected Ubar = 1, pressure gradient = 0.00784032
smoothSolver:  Solving for omega, Initial residual = 4.71585e-06, Final residual = 4.71585e-06, No Iterations 0
smoothSolver:  Solving for k, Initial residual = 1.00947e-05, Final residual = 6.37662e-06, No Iterations 1
ExecutionTime = 12.1824 s  ClockTime = 13 s

Time = 4538s

smoothSolver:  Solving for Ux, Initial residual = 1.45169e-06, Final residual = 1.45169e-06, No Iterations 0
smoothSolver:  Solving for Uy, Initial residual = 0.00025129, Final residual = 1.55656e-05, No Iterations 4
Pressure gradient source: uncorrected Ubar = 1, pressure gradient = 0.00784032
GAMG:  Solving for p, Initial residual = 0.000142386, Final residual = 7.3457e-06, No Iterations 4
time step continuity errors : sum local = 1.37857e-11, global = -4.42511e-18, cumulative = 3.78002e-16
Pressure gradient source: uncorrected Ubar = 1, pressure gradient = 0.0078403
smoothSolver:  Solving for omega, Initial residual = 4.71584e-06, Final residual = 4.71584e-06, No Iterations 0
smoothSolver:  Solving for k, Initial residual = 1.00901e-05, Final residual = 6.39985e-06, No Iterations 1
ExecutionTime = 12.1848 s  ClockTime = 13 s

Time = 4539s

smoothSolver:  Solving for Ux, Initial residual = 1.45626e-06, Final residual = 1.45626e-06, No Iterations 0
smoothSolver:  Solving for Uy, Initial residual = 0.000291793, Final residual = 2.13239e-05, No Iterations 4
Pressure gradient source: uncorrected Ubar = 1, pressure gradient = 0.0078403
GAMG:  Solving for p, Initial residual = 0.000143589, Final residual = 7.9825e-06, No Iterations 4
time step continuity errors : sum local = 1.46214e-11, global = -4.09816e-18, cumulative = 3.73904e-16
Pressure gradient source: uncorrected Ubar = 1, pressure gradient = 0.00784028
smoothSolver:  Solving for omega, Initial residual = 4.71584e-06, Final residual = 4.71584e-06, No Iterations 0
smoothSolver:  Solving for k, Initial residual = 1.0072e-05, Final residual = 6.36647e-06, No Iterations 1
ExecutionTime = 12.1872 s  ClockTime = 13 s

Time = 4540s

smoothSolver:  Solving for Ux, Initial residual = 1.46092e-06, Final residual = 1.46092e-06, No Iterations 0
smoothSolver:  Solving for Uy, Initial residual = 0.000308034, Final residual = 2.24466e-05, No Iterations 4
Pressure gradient source: uncorrected Ubar = 1, pressure gradient = 0.00784028
GAMG:  Solving for p, Initial residual = 0.000144428, Final residual = 8.90924e-06, No Iterations 4
time step continuity errors : sum local = 1.59192e-11, global = 2.17553e-18, cumulative = 3.76079e-16
Pressure gradient source: uncorrected Ubar = 1, pressure gradient = 0.00784026
smoothSolver:  Solving for omega, Initial residual = 4.71584e-06, Final residual = 4.71584e-06, No Iterations 0
smoothSolver:  Solving for k, Initial residual = 1.00663e-05, Final residual = 6.38558e-06, No Iterations 1
ExecutionTime = 12.1896 s  ClockTime = 13 s

Time = 4541s

smoothSolver:  Solving for Ux, Initial residual = 1.46552e-06, Final residual = 1.46552e-06, No Iterations 0
smoothSolver:  Solving for Uy, Initial residual = 0.000280223, Final residual = 2.09827e-05, No Iterations 4
Pressure gradient source: uncorrected Ubar = 1, pressure gradient = 0.00784026
GAMG:  Solving for p, Initial residual = 0.00013249, Final residual = 7.10519e-06, No Iterations 4
time step continuity errors : sum local = 1.26723e-11, global = 3.7881e-18, cumulative = 3.79868e-16
Pressure gradient source: uncorrected Ubar = 1, pressure gradient = 0.00784024
smoothSolver:  Solving for omega, Initial residual = 4.71584e-06, Final residual = 4.71584e-06, No Iterations 0
smoothSolver:  Solving for k, Initial residual = 1.00487e-05, Final residual = 6.35532e-06, No Iterations 1
ExecutionTime = 12.1923 s  ClockTime = 13 s

Time = 4542s

smoothSolver:  Solving for Ux, Initial residual = 1.47016e-06, Final residual = 1.47016e-06, No Iterations 0
smoothSolver:  Solving for Uy, Initial residual = 0.000316012, Final residual = 2.60751e-05, No Iterations 4
Pressure gradient source: uncorrected Ubar = 1, pressure gradient = 0.00784024
GAMG:  Solving for p, Initial residual = 0.00014024, Final residual = 8.36643e-06, No Iterations 4
time step continuity errors : sum local = 1.50047e-11, global = -1.44898e-18, cumulative = 3.78419e-16
Pressure gradient source: uncorrected Ubar = 1, pressure gradient = 0.00784021
smoothSolver:  Solving for omega, Initial residual = 4.71584e-06, Final residual = 4.71584e-06, No Iterations 0
smoothSolver:  Solving for k, Initial residual = 1.00413e-05, Final residual = 6.36892e-06, No Iterations 1
ExecutionTime = 12.1957 s  ClockTime = 13 s

Time = 4543s

smoothSolver:  Solving for Ux, Initial residual = 1.47474e-06, Final residual = 1.47474e-06, No Iterations 0
smoothSolver:  Solving for Uy, Initial residual = 0.000331387, Final residual = 2.32568e-05, No Iterations 4
Pressure gradient source: uncorrected Ubar = 1, pressure gradient = 0.00784021
GAMG:  Solving for p, Initial residual = 0.000153672, Final residual = 9.11555e-06, No Iterations 4
time step continuity errors : sum local = 1.68367e-11, global = -6.29308e-19, cumulative = 3.77789e-16
Pressure gradient source: uncorrected Ubar = 1, pressure gradient = 0.00784019
smoothSolver:  Solving for omega, Initial residual = 4.71584e-06, Final residual = 4.71584e-06, No Iterations 0
smoothSolver:  Solving for k, Initial residual = 1.00211e-05, Final residual = 6.3298e-06, No Iterations 1
ExecutionTime = 12.1984 s  ClockTime = 13 s

Time = 4544s

smoothSolver:  Solving for Ux, Initial residual = 1.47934e-06, Final residual = 1.47934e-06, No Iterations 0
smoothSolver:  Solving for Uy, Initial residual = 0.00027998, Final residual = 1.93453e-05, No Iterations 4
Pressure gradient source: uncorrected Ubar = 1, pressure gradient = 0.00784019
GAMG:  Solving for p, Initial residual = 0.000131977, Final residual = 8.98207e-06, No Iterations 4
time step continuity errors : sum local = 1.68307e-11, global = -9.23185e-19, cumulative = 3.76866e-16
Pressure gradient source: uncorrected Ubar = 1, pressure gradient = 0.00784017
smoothSolver:  Solving for omega, Initial residual = 4.71584e-06, Final residual = 4.71584e-06, No Iterations 0
smoothSolver:  Solving for k, Initial residual = 1.00144e-05, Final residual = 6.34454e-06, No Iterations 1
ExecutionTime = 12.2009 s  ClockTime = 13 s

Time = 4545s

smoothSolver:  Solving for Ux, Initial residual = 1.48388e-06, Final residual = 1.48388e-06, No Iterations 0
smoothSolver:  Solving for Uy, Initial residual = 0.000316553, Final residual = 2.44939e-05, No Iterations 4
Pressure gradient source: uncorrected Ubar = 1, pressure gradient = 0.00784017
GAMG:  Solving for p, Initial residual = 0.000123706, Final residual = 1.04452e-05, No Iterations 4
time step continuity errors : sum local = 1.91832e-11, global = 3.34579e-19, cumulative = 3.77201e-16
Pressure gradient source: uncorrected Ubar = 1, pressure gradient = 0.00784015
smoothSolver:  Solving for omega, Initial residual = 4.71584e-06, Final residual = 4.71584e-06, No Iterations 0
smoothSolver:  Solving for k, Initial residual = 9.99683e-06, Final residual = 9.99683e-06, No Iterations 0
ExecutionTime = 12.2034 s  ClockTime = 13 s

Time = 4546s

smoothSolver:  Solving for Ux, Initial residual = 1.48335e-06, Final residual = 1.48335e-06, No Iterations 0
smoothSolver:  Solving for Uy, Initial residual = 0.000167673, Final residual = 1.46384e-05, No Iterations 4
Pressure gradient source: uncorrected Ubar = 1, pressure gradient = 0.00784015
GAMG:  Solving for p, Initial residual = 8.83014e-05, Final residual = 6.35721e-06, No Iterations 5
time step continuity errors : sum local = 1.16234e-11, global = 3.32882e-19, cumulative = 3.77533e-16
Pressure gradient source: uncorrected Ubar = 1, pressure gradient = 0.00784015
smoothSolver:  Solving for omega, Initial residual = 4.71583e-06, Final residual = 4.71583e-06, No Iterations 0
smoothSolver:  Solving for k, Initial residual = 9.98738e-06, Final residual = 9.98738e-06, No Iterations 0
ExecutionTime = 12.2059 s  ClockTime = 13 s

Time = 4547s

smoothSolver:  Solving for Ux, Initial residual = 1.48241e-06, Final residual = 1.48241e-06, No Iterations 0
smoothSolver:  Solving for Uy, Initial residual = 0.000123227, Final residual = 8.17921e-06, No Iterations 4
Pressure gradient source: uncorrected Ubar = 1, pressure gradient = 0.00784015
GAMG:  Solving for p, Initial residual = 6.63521e-05, Final residual = 3.93222e-06, No Iterations 5
time step continuity errors : sum local = 7.10141e-12, global = 7.93239e-19, cumulative = 3.78327e-16
Pressure gradient source: uncorrected Ubar = 1, pressure gradient = 0.00784015
smoothSolver:  Solving for omega, Initial residual = 4.71583e-06, Final residual = 4.71583e-06, No Iterations 0
smoothSolver:  Solving for k, Initial residual = 9.97794e-06, Final residual = 9.97794e-06, No Iterations 0
ExecutionTime = 12.2084 s  ClockTime = 13 s

Time = 4548s

smoothSolver:  Solving for Ux, Initial residual = 1.48147e-06, Final residual = 1.48147e-06, No Iterations 0
smoothSolver:  Solving for Uy, Initial residual = 9.75295e-05, Final residual = 6.51393e-06, No Iterations 4
Pressure gradient source: uncorrected Ubar = 1, pressure gradient = 0.00784015
GAMG:  Solving for p, Initial residual = 5.2966e-05, Final residual = 5.03431e-06, No Iterations 3
time step continuity errors : sum local = 9.27735e-12, global = -4.74469e-18, cumulative = 3.73582e-16
Pressure gradient source: uncorrected Ubar = 1, pressure gradient = 0.00784016
smoothSolver:  Solving for omega, Initial residual = 4.71583e-06, Final residual = 4.71583e-06, No Iterations 0
smoothSolver:  Solving for k, Initial residual = 9.96851e-06, Final residual = 9.96851e-06, No Iterations 0
ExecutionTime = 12.2109 s  ClockTime = 13 s


SIMPLE solution converged in 4548 iterations

End

