/*---------------------------------------------------------------------------*\
  =========                 |
  \\      /  F ield         | OpenFOAM: The Open Source CFD Toolbox
   \\    /   O peration     | Website:  https://openfoam.org
    \\  /    A nd           | Version:  10
     \\/     M anipulation  |
\*---------------------------------------------------------------------------*/
Build  : 10-e450dce21ea5
Exec   : blockMesh
Date   : Jan 16 2023
Time   : 11:42:47
Host   : "w530-R9YK46P"
PID    : 14239
I/O    : uncollated
Case   : /home/jdmezazeron/gitDanielMezaZ/turbulenceVisualized/Data/SimulationFiles/E10_Re763
nProcs : 1
sigFpe : Enabling floating point exception trapping (FOAM_SIGFPE).
fileModificationChecking : Monitoring run-time modified files using timeStampMaster (fileModificationSkew 10)
allowSystemOperations : Allowing user-supplied system call operations

// * * * * * * * * * * * * * * * * * * * * * * * * * * * * * * * * * * * * * //
Create time

Reading "blockMeshDict"

Creating block mesh from
    "system/blockMeshDict"
Creating block edges
No non-planar block faces defined
Creating topology blocks
Creating topology patches

Creating block mesh topology

Check topology

	Basic statistics
		Number of internal faces : 0
		Number of boundary faces : 6
		Number of defined boundary faces : 6
		Number of undefined boundary faces : 0
	Checking patch -> block consistency

Creating block offsets
Creating merge list .

Creating polyMesh from blockMesh
Creating patches
Creating cells
Creating points with scale 1
    Block 0 cell size :
        i : 0.5
        j : 0.00921276 .. 0.036851
        k : 2

Detected cyclic patches; ordering boundary faces

Writing polyMesh
----------------
Mesh Information
----------------
  boundingBox: (-1 0 -1) (1 1 1)
  nPoints: 510
  nCells: 200
  nFaces: 854
  nInternalFaces: 346
----------------
Patches
----------------
  patch 0 (start: 346 size: 50) name: inlet
  patch 1 (start: 396 size: 50) name: outlet
  patch 2 (start: 446 size: 4) name: fixedWalls-bottom
  patch 3 (start: 450 size: 4) name: fixedWalls-top
  patch 4 (start: 454 size: 400) name: frontAndBack

End

/*---------------------------------------------------------------------------*\
  =========                 |
  \\      /  F ield         | OpenFOAM: The Open Source CFD Toolbox
   \\    /   O peration     | Website:  https://openfoam.org
    \\  /    A nd           | Version:  10
     \\/     M anipulation  |
\*---------------------------------------------------------------------------*/
Build  : 10-e450dce21ea5
Exec   : simpleFoam
Date   : Jan 16 2023
Time   : 11:42:47
Host   : "w530-R9YK46P"
PID    : 14240
I/O    : uncollated
Case   : /home/jdmezazeron/gitDanielMezaZ/turbulenceVisualized/Data/SimulationFiles/E10_Re763
nProcs : 1
sigFpe : Enabling floating point exception trapping (FOAM_SIGFPE).
fileModificationChecking : Monitoring run-time modified files using timeStampMaster (fileModificationSkew 10)
allowSystemOperations : Allowing user-supplied system call operations

// * * * * * * * * * * * * * * * * * * * * * * * * * * * * * * * * * * * * * //
Create time

Create mesh for time = 0


SIMPLE: Convergence criteria found
        U: tolerance 0.01
        p: tolerance 0.01
        omega: tolerance 0.0001

Reading field p

Reading field U

Reading/calculating face flux field phi

Selecting viscosity model Newtonian
Selecting turbulence model type RAS
Selecting RAS turbulence model kOmegaSST
Selecting patchDistMethod meshWave
RAS
{
    RASModel        kOmegaSST;
    turbulence      on;
    printCoeffs     on;
    alphaK1         0.85;
    alphaK2         1;
    alphaOmega1     0.5;
    alphaOmega2     0.856;
    gamma1          0.555556;
    gamma2          0.44;
    beta1           0.075;
    beta2           0.0828;
    betaStar        0.09;
    a1              0.31;
    b1              1;
    c1              10;
    F3              false;
}

No MRF models present

--> FOAM Warning : Creating fvModels from "system/fvOptions" rather than constant/fvModels
No fvModels present
--> FOAM Warning : Creating fvConstraints from "system/fvOptions"

Selecting finite volume constraint type meanVelocityForce
    Name: momentumSource
    - selecting all cells
    - selected 200 cell(s) with volume 4
    Initial pressure gradient = 0


Starting time loop

turbulenceFields stressComponents: storing fields:
    R

Time = 1s

smoothSolver:  Solving for Ux, Initial residual = 0, Final residual = 0, No Iterations 0
smoothSolver:  Solving for Uy, Initial residual = 0, Final residual = 0, No Iterations 0
Pressure gradient source: uncorrected Ubar = 0, pressure gradient = 10.7339
GAMG:  Solving for p, Initial residual = 0.999988, Final residual = 0.0629416, No Iterations 3
time step continuity errors : sum local = 4.45433e-17, global = -1.02375e-18, cumulative = -1.02375e-18
Pressure gradient source: uncorrected Ubar = 0.869363, pressure gradient = 1.40224
smoothSolver:  Solving for omega, Initial residual = 0.0209034, Final residual = 0.000930051, No Iterations 2
smoothSolver:  Solving for k, Initial residual = 1, Final residual = 0.0444114, No Iterations 1
ExecutionTime = 0.012436 s  ClockTime = 0 s

Time = 2s

smoothSolver:  Solving for Ux, Initial residual = 0.364234, Final residual = 0.0324056, No Iterations 6
smoothSolver:  Solving for Uy, Initial residual = 1, Final residual = 0.0662582, No Iterations 2
Pressure gradient source: uncorrected Ubar = 1.68885, pressure gradient = -9.64504
GAMG:  Solving for p, Initial residual = 1, Final residual = 0.0779454, No Iterations 5
time step continuity errors : sum local = 0.00068972, global = -1.63304e-17, cumulative = -1.73541e-17
Pressure gradient source: uncorrected Ubar = 1.09237, pressure gradient = -0.0791164
smoothSolver:  Solving for omega, Initial residual = 0.129884, Final residual = 0.000635645, No Iterations 1
smoothSolver:  Solving for k, Initial residual = 0.151501, Final residual = 0.0145169, No Iterations 2
ExecutionTime = 0.014576 s  ClockTime = 0 s

Time = 3s

smoothSolver:  Solving for Ux, Initial residual = 0.0577825, Final residual = 0.00516222, No Iterations 5
smoothSolver:  Solving for Uy, Initial residual = 0.427912, Final residual = 0.0220506, No Iterations 3
Pressure gradient source: uncorrected Ubar = 0.944102, pressure gradient = 0.869089
GAMG:  Solving for p, Initial residual = 0.221916, Final residual = 0.0141792, No Iterations 4
time step continuity errors : sum local = 0.000258533, global = -2.50732e-18, cumulative = -1.98614e-17
Pressure gradient source: uncorrected Ubar = 0.992132, pressure gradient = 0.0543544
smoothSolver:  Solving for omega, Initial residual = 0.0090634, Final residual = 0.000244362, No Iterations 1
smoothSolver:  Solving for k, Initial residual = 0.0538122, Final residual = 0.00421013, No Iterations 3
ExecutionTime = 0.01688 s  ClockTime = 0 s

Time = 4s

smoothSolver:  Solving for Ux, Initial residual = 0.0312871, Final residual = 0.0021358, No Iterations 5
smoothSolver:  Solving for Uy, Initial residual = 0.399054, Final residual = 0.0235139, No Iterations 3
Pressure gradient source: uncorrected Ubar = 1.00808, pressure gradient = -0.0811052
GAMG:  Solving for p, Initial residual = 0.14867, Final residual = 0.0115987, No Iterations 6
time step continuity errors : sum local = 0.000210656, global = -1.35186e-18, cumulative = -2.12133e-17
Pressure gradient source: uncorrected Ubar = 1.00107, pressure gradient = 0.0364412
smoothSolver:  Solving for omega, Initial residual = 0.00878964, Final residual = 0.000172991, No Iterations 1
smoothSolver:  Solving for k, Initial residual = 0.0311773, Final residual = 0.00178773, No Iterations 4
ExecutionTime = 0.018958 s  ClockTime = 0 s

Time = 5s

smoothSolver:  Solving for Ux, Initial residual = 0.0216623, Final residual = 0.00151568, No Iterations 5
smoothSolver:  Solving for Uy, Initial residual = 0.252967, Final residual = 0.0185287, No Iterations 3
Pressure gradient source: uncorrected Ubar = 1.00286, pressure gradient = -0.0117362
GAMG:  Solving for p, Initial residual = 0.111163, Final residual = 0.00853207, No Iterations 4
time step continuity errors : sum local = 0.00012553, global = 1.87194e-18, cumulative = -1.93414e-17
Pressure gradient source: uncorrected Ubar = 1.00036, pressure gradient = 0.0304431
smoothSolver:  Solving for omega, Initial residual = 0.00350271, Final residual = 0.000108108, No Iterations 1
smoothSolver:  Solving for k, Initial residual = 0.0225135, Final residual = 0.00153126, No Iterations 4
ExecutionTime = 0.020917 s  ClockTime = 0 s

Time = 6s

smoothSolver:  Solving for Ux, Initial residual = 0.0165806, Final residual = 0.00119547, No Iterations 5
smoothSolver:  Solving for Uy, Initial residual = 0.269961, Final residual = 0.0157035, No Iterations 3
Pressure gradient source: uncorrected Ubar = 1.00233, pressure gradient = -0.00878248
GAMG:  Solving for p, Initial residual = 0.0782736, Final residual = 0.00317024, No Iterations 4
time step continuity errors : sum local = 3.90686e-05, global = -4.70908e-18, cumulative = -2.40504e-17
Pressure gradient source: uncorrected Ubar = 1.00029, pressure gradient = 0.0256263
smoothSolver:  Solving for omega, Initial residual = 0.00235777, Final residual = 6.94082e-05, No Iterations 1
smoothSolver:  Solving for k, Initial residual = 0.0188108, Final residual = 0.00131078, No Iterations 4
ExecutionTime = 0.022908 s  ClockTime = 0 s

Time = 7s

smoothSolver:  Solving for Ux, Initial residual = 0.0130617, Final residual = 0.000964697, No Iterations 5
smoothSolver:  Solving for Uy, Initial residual = 0.498193, Final residual = 0.025695, No Iterations 3
Pressure gradient source: uncorrected Ubar = 1.00176, pressure gradient = -0.0039619
GAMG:  Solving for p, Initial residual = 0.0991723, Final residual = 0.00786944, No Iterations 4
time step continuity errors : sum local = 7.87229e-05, global = 1.34763e-18, cumulative = -2.27028e-17
Pressure gradient source: uncorrected Ubar = 1.00021, pressure gradient = 0.0220755
smoothSolver:  Solving for omega, Initial residual = 0.00119375, Final residual = 4.3336e-05, No Iterations 1
smoothSolver:  Solving for k, Initial residual = 0.0161125, Final residual = 0.000970888, No Iterations 4
ExecutionTime = 0.024879 s  ClockTime = 0 s

Time = 8s

smoothSolver:  Solving for Ux, Initial residual = 0.0106286, Final residual = 0.000802211, No Iterations 5
smoothSolver:  Solving for Uy, Initial residual = 0.672376, Final residual = 0.0313664, No Iterations 3
Pressure gradient source: uncorrected Ubar = 1.00127, pressure gradient = 0.000677353
GAMG:  Solving for p, Initial residual = 0.118163, Final residual = 0.0104125, No Iterations 5
time step continuity errors : sum local = 8.70284e-05, global = 1.27038e-17, cumulative = -9.99899e-18
Pressure gradient source: uncorrected Ubar = 1.00015, pressure gradient = 0.0195796
smoothSolver:  Solving for omega, Initial residual = 0.000709233, Final residual = 2.876e-05, No Iterations 1
smoothSolver:  Solving for k, Initial residual = 0.0148114, Final residual = 0.00135064, No Iterations 4
ExecutionTime = 0.026866 s  ClockTime = 0 s

Time = 9s

smoothSolver:  Solving for Ux, Initial residual = 0.00876399, Final residual = 0.000680724, No Iterations 5
smoothSolver:  Solving for Uy, Initial residual = 0.844431, Final residual = 0.0394922, No Iterations 3
Pressure gradient source: uncorrected Ubar = 1.00116, pressure gradient = 0.000170838
GAMG:  Solving for p, Initial residual = 0.13121, Final residual = 0.0128325, No Iterations 5
time step continuity errors : sum local = 8.55151e-05, global = 3.12682e-18, cumulative = -6.87216e-18
Pressure gradient source: uncorrected Ubar = 1.00014, pressure gradient = 0.017299
smoothSolver:  Solving for omega, Initial residual = 0.000388864, Final residual = 1.90769e-05, No Iterations 1
smoothSolver:  Solving for k, Initial residual = 0.013174, Final residual = 0.000863359, No Iterations 5
ExecutionTime = 0.02886 s  ClockTime = 0 s

Time = 10s

smoothSolver:  Solving for Ux, Initial residual = 0.00737417, Final residual = 0.000585712, No Iterations 5
smoothSolver:  Solving for Uy, Initial residual = 0.913001, Final residual = 0.0415821, No Iterations 3
Pressure gradient source: uncorrected Ubar = 1.00083, pressure gradient = 0.00355159
GAMG:  Solving for p, Initial residual = 0.139149, Final residual = 0.0112357, No Iterations 5
time step continuity errors : sum local = 6.61396e-05, global = -3.47538e-18, cumulative = -1.03475e-17
Pressure gradient source: uncorrected Ubar = 1.00009, pressure gradient = 0.0157358
smoothSolver:  Solving for omega, Initial residual = 0.000224146, Final residual = 1.35485e-05, No Iterations 1
smoothSolver:  Solving for k, Initial residual = 0.0115099, Final residual = 0.00096994, No Iterations 4
ExecutionTime = 0.030869 s  ClockTime = 0 s

Time = 11s

smoothSolver:  Solving for Ux, Initial residual = 0.00629479, Final residual = 0.000512122, No Iterations 5
smoothSolver:  Solving for Uy, Initial residual = 0.837936, Final residual = 0.0371427, No Iterations 3
Pressure gradient source: uncorrected Ubar = 1.00067, pressure gradient = 0.00467012
GAMG:  Solving for p, Initial residual = 0.132664, Final residual = 0.0108466, No Iterations 5
time step continuity errors : sum local = 5.15597e-05, global = -7.07672e-18, cumulative = -1.74243e-17
Pressure gradient source: uncorrected Ubar = 1.00008, pressure gradient = 0.0144979
smoothSolver:  Solving for omega, Initial residual = 0.000127504, Final residual = 9.66782e-06, No Iterations 1
smoothSolver:  Solving for k, Initial residual = 0.0103102, Final residual = 0.00074654, No Iterations 5
ExecutionTime = 0.03324 s  ClockTime = 0 s

Time = 12s

smoothSolver:  Solving for Ux, Initial residual = 0.00542839, Final residual = 0.000452757, No Iterations 5
smoothSolver:  Solving for Uy, Initial residual = 0.71129, Final residual = 0.0315667, No Iterations 3
Pressure gradient source: uncorrected Ubar = 1.00058, pressure gradient = 0.00505992
GAMG:  Solving for p, Initial residual = 0.120437, Final residual = 0.0116736, No Iterations 4
time step continuity errors : sum local = 4.9773e-05, global = 1.03845e-18, cumulative = -1.63858e-17
Pressure gradient source: uncorrected Ubar = 1.00006, pressure gradient = 0.0134464
smoothSolver:  Solving for omega, Initial residual = 7.44334e-05, Final residual = 7.32759e-06, No Iterations 1
smoothSolver:  Solving for k, Initial residual = 0.00893664, Final residual = 0.000861395, No Iterations 4
ExecutionTime = 0.035244 s  ClockTime = 0 s

Time = 13s

smoothSolver:  Solving for Ux, Initial residual = 0.00474202, Final residual = 0.000402419, No Iterations 5
smoothSolver:  Solving for Uy, Initial residual = 0.618615, Final residual = 0.0260478, No Iterations 3
Pressure gradient source: uncorrected Ubar = 1.00047, pressure gradient = 0.00585417
GAMG:  Solving for p, Initial residual = 0.11566, Final residual = 0.00926567, No Iterations 5
time step continuity errors : sum local = 3.42855e-05, global = -5.47652e-18, cumulative = -2.18623e-17
Pressure gradient source: uncorrected Ubar = 1.00005, pressure gradient = 0.0126195
smoothSolver:  Solving for omega, Initial residual = 4.41961e-05, Final residual = 5.66328e-06, No Iterations 1
smoothSolver:  Solving for k, Initial residual = 0.00786865, Final residual = 0.000679823, No Iterations 4
ExecutionTime = 0.037267 s  ClockTime = 0 s

Time = 14s

smoothSolver:  Solving for Ux, Initial residual = 0.00415603, Final residual = 0.000359275, No Iterations 5
smoothSolver:  Solving for Uy, Initial residual = 0.563506, Final residual = 0.0238246, No Iterations 3
Pressure gradient source: uncorrected Ubar = 1.00034, pressure gradient = 0.00711302
GAMG:  Solving for p, Initial residual = 0.107413, Final residual = 0.00804739, No Iterations 4
time step continuity errors : sum local = 2.6216e-05, global = 8.68135e-18, cumulative = -1.3181e-17
Pressure gradient source: uncorrected Ubar = 1.00004, pressure gradient = 0.0120521
smoothSolver:  Solving for omega, Initial residual = 2.69918e-05, Final residual = 4.62931e-06, No Iterations 1
smoothSolver:  Solving for k, Initial residual = 0.00697603, Final residual = 0.000599281, No Iterations 4
ExecutionTime = 0.039173 s  ClockTime = 0 s

Time = 15s

smoothSolver:  Solving for Ux, Initial residual = 0.00370065, Final residual = 0.000324141, No Iterations 5
smoothSolver:  Solving for Uy, Initial residual = 0.56882, Final residual = 0.0237643, No Iterations 3
Pressure gradient source: uncorrected Ubar = 1.00032, pressure gradient = 0.00693673
GAMG:  Solving for p, Initial residual = 0.107382, Final residual = 0.0071476, No Iterations 4
time step continuity errors : sum local = 2.03808e-05, global = 1.03165e-17, cumulative = -2.86443e-18
Pressure gradient source: uncorrected Ubar = 1.00003, pressure gradient = 0.0115177
smoothSolver:  Solving for omega, Initial residual = 1.70633e-05, Final residual = 3.65459e-06, No Iterations 1
smoothSolver:  Solving for k, Initial residual = 0.00623343, Final residual = 0.000444447, No Iterations 5
ExecutionTime = 0.041091 s  ClockTime = 0 s

Time = 16s

smoothSolver:  Solving for Ux, Initial residual = 0.00328794, Final residual = 0.000292772, No Iterations 5
smoothSolver:  Solving for Uy, Initial residual = 0.578915, Final residual = 0.0245386, No Iterations 3
Pressure gradient source: uncorrected Ubar = 1.00026, pressure gradient = 0.00729006
GAMG:  Solving for p, Initial residual = 0.105542, Final residual = 0.00565726, No Iterations 4
time step continuity errors : sum local = 1.3985e-05, global = -2.92708e-18, cumulative = -5.79152e-18
Pressure gradient source: uncorrected Ubar = 1.00003, pressure gradient = 0.0110863
smoothSolver:  Solving for omega, Initial residual = 1.12475e-05, Final residual = 3.02161e-06, No Iterations 1
smoothSolver:  Solving for k, Initial residual = 0.00545679, Final residual = 0.000509993, No Iterations 4
ExecutionTime = 0.04306 s  ClockTime = 0 s

Time = 17s

smoothSolver:  Solving for Ux, Initial residual = 0.00294254, Final residual = 0.000265106, No Iterations 5
smoothSolver:  Solving for Uy, Initial residual = 0.575429, Final residual = 0.023413, No Iterations 3
Pressure gradient source: uncorrected Ubar = 1.00021, pressure gradient = 0.0076932
GAMG:  Solving for p, Initial residual = 0.106454, Final residual = 0.0100569, No Iterations 3
time step continuity errors : sum local = 2.11112e-05, global = 6.22008e-18, cumulative = 4.28566e-19
Pressure gradient source: uncorrected Ubar = 1.00002, pressure gradient = 0.0107539
smoothSolver:  Solving for omega, Initial residual = 7.77769e-06, Final residual = 7.77769e-06, No Iterations 0
smoothSolver:  Solving for k, Initial residual = 0.00516793, Final residual = 0.000456788, No Iterations 4
ExecutionTime = 0.044928 s  ClockTime = 0 s

Time = 18s

smoothSolver:  Solving for Ux, Initial residual = 0.00262294, Final residual = 0.000240131, No Iterations 5
smoothSolver:  Solving for Uy, Initial residual = 0.593451, Final residual = 0.0213394, No Iterations 3
Pressure gradient source: uncorrected Ubar = 1.00021, pressure gradient = 0.00740602
GAMG:  Solving for p, Initial residual = 0.0990668, Final residual = 0.00864874, No Iterations 3
time step continuity errors : sum local = 1.61813e-05, global = 1.3276e-17, cumulative = 1.37045e-17
Pressure gradient source: uncorrected Ubar = 1.00002, pressure gradient = 0.0104135
smoothSolver:  Solving for omega, Initial residual = 7.82033e-06, Final residual = 7.82033e-06, No Iterations 0
smoothSolver:  Solving for k, Initial residual = 0.00514953, Final residual = 0.000386879, No Iterations 4
ExecutionTime = 0.046901 s  ClockTime = 0 s

Time = 19s

smoothSolver:  Solving for Ux, Initial residual = 0.00234366, Final residual = 0.000216973, No Iterations 5
smoothSolver:  Solving for Uy, Initial residual = 0.52565, Final residual = 0.0510144, No Iterations 2
Pressure gradient source: uncorrected Ubar = 1.00017, pressure gradient = 0.00779654
GAMG:  Solving for p, Initial residual = 0.101679, Final residual = 0.00874923, No Iterations 3
time step continuity errors : sum local = 1.44004e-05, global = 1.95813e-18, cumulative = 1.56627e-17
Pressure gradient source: uncorrected Ubar = 1.00002, pressure gradient = 0.0101612
smoothSolver:  Solving for omega, Initial residual = 7.86279e-06, Final residual = 7.86279e-06, No Iterations 0
smoothSolver:  Solving for k, Initial residual = 0.0051727, Final residual = 0.000322563, No Iterations 5
ExecutionTime = 0.04912 s  ClockTime = 0 s

Time = 20s

smoothSolver:  Solving for Ux, Initial residual = 0.00210156, Final residual = 0.000196766, No Iterations 5
smoothSolver:  Solving for Uy, Initial residual = 0.483979, Final residual = 0.0448659, No Iterations 2
Pressure gradient source: uncorrected Ubar = 1.00016, pressure gradient = 0.0076547
GAMG:  Solving for p, Initial residual = 0.101958, Final residual = 0.00914787, No Iterations 3
time step continuity errors : sum local = 1.27791e-05, global = 3.33858e-18, cumulative = 1.90012e-17
Pressure gradient source: uncorrected Ubar = 1.00002, pressure gradient = 0.00991343
smoothSolver:  Solving for omega, Initial residual = 7.90278e-06, Final residual = 7.90278e-06, No Iterations 0
smoothSolver:  Solving for k, Initial residual = 0.00507793, Final residual = 0.000359697, No Iterations 5
ExecutionTime = 0.051133 s  ClockTime = 0 s

Time = 21s

smoothSolver:  Solving for Ux, Initial residual = 0.00188721, Final residual = 0.000179317, No Iterations 5
smoothSolver:  Solving for Uy, Initial residual = 0.444795, Final residual = 0.0389967, No Iterations 2
Pressure gradient source: uncorrected Ubar = 1.00014, pressure gradient = 0.007825
GAMG:  Solving for p, Initial residual = 0.0963001, Final residual = 0.00850621, No Iterations 3
time step continuity errors : sum local = 1.03968e-05, global = 2.73454e-18, cumulative = 2.17358e-17
Pressure gradient source: uncorrected Ubar = 1.00001, pressure gradient = 0.00971364
smoothSolver:  Solving for omega, Initial residual = 7.93409e-06, Final residual = 7.93409e-06, No Iterations 0
smoothSolver:  Solving for k, Initial residual = 0.00495679, Final residual = 0.000361697, No Iterations 4
ExecutionTime = 0.053071 s  ClockTime = 0 s

Time = 22s

smoothSolver:  Solving for Ux, Initial residual = 0.00170336, Final residual = 0.000163355, No Iterations 5
smoothSolver:  Solving for Uy, Initial residual = 0.43321, Final residual = 0.0393872, No Iterations 2
Pressure gradient source: uncorrected Ubar = 1.00011, pressure gradient = 0.00801097
GAMG:  Solving for p, Initial residual = 0.0938638, Final residual = 0.0080858, No Iterations 3
time step continuity errors : sum local = 8.72966e-06, global = -2.50298e-18, cumulative = 1.92328e-17
Pressure gradient source: uncorrected Ubar = 1.00001, pressure gradient = 0.00955849
smoothSolver:  Solving for omega, Initial residual = 7.96264e-06, Final residual = 7.96264e-06, No Iterations 0
smoothSolver:  Solving for k, Initial residual = 0.00496783, Final residual = 0.000384635, No Iterations 4
ExecutionTime = 0.05496 s  ClockTime = 0 s

Time = 23s

smoothSolver:  Solving for Ux, Initial residual = 0.00154227, Final residual = 0.000149661, No Iterations 5
smoothSolver:  Solving for Uy, Initial residual = 0.423, Final residual = 0.0385163, No Iterations 2
Pressure gradient source: uncorrected Ubar = 1.0001, pressure gradient = 0.00797851
GAMG:  Solving for p, Initial residual = 0.0886014, Final residual = 0.00759335, No Iterations 3
time step continuity errors : sum local = 7.42237e-06, global = 3.38064e-18, cumulative = 2.26134e-17
Pressure gradient source: uncorrected Ubar = 1.00001, pressure gradient = 0.00941284
smoothSolver:  Solving for omega, Initial residual = 7.99497e-06, Final residual = 7.99497e-06, No Iterations 0
smoothSolver:  Solving for k, Initial residual = 0.0050226, Final residual = 0.000319687, No Iterations 5
ExecutionTime = 0.056823 s  ClockTime = 0 s

Time = 24s

smoothSolver:  Solving for Ux, Initial residual = 0.0013998, Final residual = 0.000136189, No Iterations 5
smoothSolver:  Solving for Uy, Initial residual = 0.435345, Final residual = 0.0418832, No Iterations 2
Pressure gradient source: uncorrected Ubar = 1.00009, pressure gradient = 0.0080111
GAMG:  Solving for p, Initial residual = 0.0875203, Final residual = 0.00723096, No Iterations 3
time step continuity errors : sum local = 6.56026e-06, global = -8.45445e-20, cumulative = 2.25289e-17
Pressure gradient source: uncorrected Ubar = 1.00001, pressure gradient = 0.00928509
smoothSolver:  Solving for omega, Initial residual = 8.02309e-06, Final residual = 8.02309e-06, No Iterations 0
smoothSolver:  Solving for k, Initial residual = 0.00498923, Final residual = 0.000497328, No Iterations 4
ExecutionTime = 0.058714 s  ClockTime = 0 s

Time = 25s

smoothSolver:  Solving for Ux, Initial residual = 0.00127462, Final residual = 0.000124711, No Iterations 5
smoothSolver:  Solving for Uy, Initial residual = 0.427592, Final residual = 0.0427509, No Iterations 2
Pressure gradient source: uncorrected Ubar = 1.00008, pressure gradient = 0.00805212
GAMG:  Solving for p, Initial residual = 0.0764557, Final residual = 0.00666616, No Iterations 3
time step continuity errors : sum local = 5.40165e-06, global = -2.52601e-19, cumulative = 2.22763e-17
Pressure gradient source: uncorrected Ubar = 1.00001, pressure gradient = 0.00917461
smoothSolver:  Solving for omega, Initial residual = 8.05776e-06, Final residual = 8.05776e-06, No Iterations 0
smoothSolver:  Solving for k, Initial residual = 0.004968, Final residual = 0.000403261, No Iterations 4
ExecutionTime = 0.060576 s  ClockTime = 0 s

Time = 26s

smoothSolver:  Solving for Ux, Initial residual = 0.00116527, Final residual = 0.000114053, No Iterations 5
smoothSolver:  Solving for Uy, Initial residual = 0.426164, Final residual = 0.017144, No Iterations 3
Pressure gradient source: uncorrected Ubar = 1.00008, pressure gradient = 0.00804189
GAMG:  Solving for p, Initial residual = 0.0761584, Final residual = 0.00609264, No Iterations 3
time step continuity errors : sum local = 4.48195e-06, global = -7.89164e-18, cumulative = 1.43847e-17
Pressure gradient source: uncorrected Ubar = 1.00001, pressure gradient = 0.0090727
smoothSolver:  Solving for omega, Initial residual = 8.08911e-06, Final residual = 8.08911e-06, No Iterations 0
smoothSolver:  Solving for k, Initial residual = 0.00493347, Final residual = 0.000377336, No Iterations 4
ExecutionTime = 0.06252 s  ClockTime = 0 s

Time = 27s

smoothSolver:  Solving for Ux, Initial residual = 0.00106462, Final residual = 0.000104282, No Iterations 5
smoothSolver:  Solving for Uy, Initial residual = 0.413709, Final residual = 0.0165353, No Iterations 3
Pressure gradient source: uncorrected Ubar = 1.00007, pressure gradient = 0.0080826
GAMG:  Solving for p, Initial residual = 0.0685997, Final residual = 0.00521911, No Iterations 3
time step continuity errors : sum local = 3.42348e-06, global = 1.10067e-17, cumulative = 2.53913e-17
Pressure gradient source: uncorrected Ubar = 1.00001, pressure gradient = 0.00898556
smoothSolver:  Solving for omega, Initial residual = 8.12758e-06, Final residual = 8.12758e-06, No Iterations 0
smoothSolver:  Solving for k, Initial residual = 0.00501645, Final residual = 0.00041533, No Iterations 4
ExecutionTime = 0.064465 s  ClockTime = 0 s

Time = 28s

smoothSolver:  Solving for Ux, Initial residual = 0.000974074, Final residual = 9.53271e-05, No Iterations 5
smoothSolver:  Solving for Uy, Initial residual = 0.428651, Final residual = 0.0169571, No Iterations 3
Pressure gradient source: uncorrected Ubar = 1.00006, pressure gradient = 0.0080767
GAMG:  Solving for p, Initial residual = 0.0743477, Final residual = 0.00554174, No Iterations 3
time step continuity errors : sum local = 3.28337e-06, global = -2.12793e-18, cumulative = 2.32634e-17
Pressure gradient source: uncorrected Ubar = 1.00001, pressure gradient = 0.00890534
smoothSolver:  Solving for omega, Initial residual = 8.16207e-06, Final residual = 8.16207e-06, No Iterations 0
smoothSolver:  Solving for k, Initial residual = 0.00503097, Final residual = 0.000444445, No Iterations 4
ExecutionTime = 0.066704 s  ClockTime = 0 s

Time = 29s

smoothSolver:  Solving for Ux, Initial residual = 0.000893643, Final residual = 8.73871e-05, No Iterations 5
smoothSolver:  Solving for Uy, Initial residual = 0.458495, Final residual = 0.0190366, No Iterations 3
Pressure gradient source: uncorrected Ubar = 1.00006, pressure gradient = 0.00806939
GAMG:  Solving for p, Initial residual = 0.0744068, Final residual = 0.00642852, No Iterations 3
time step continuity errors : sum local = 3.54376e-06, global = -7.19332e-18, cumulative = 1.60701e-17
Pressure gradient source: uncorrected Ubar = 1.00001, pressure gradient = 0.00883132
smoothSolver:  Solving for omega, Initial residual = 8.20781e-06, Final residual = 8.20781e-06, No Iterations 0
smoothSolver:  Solving for k, Initial residual = 0.00501628, Final residual = 0.000408771, No Iterations 4
ExecutionTime = 0.068654 s  ClockTime = 0 s

Time = 30s

smoothSolver:  Solving for Ux, Initial residual = 0.000819288, Final residual = 7.99762e-05, No Iterations 5
smoothSolver:  Solving for Uy, Initial residual = 0.47395, Final residual = 0.0186423, No Iterations 3
Pressure gradient source: uncorrected Ubar = 1.00005, pressure gradient = 0.0080866
GAMG:  Solving for p, Initial residual = 0.0779351, Final residual = 0.00738042, No Iterations 3
time step continuity errors : sum local = 3.44558e-06, global = 8.22697e-18, cumulative = 2.4297e-17
Pressure gradient source: uncorrected Ubar = 1, pressure gradient = 0.00876635
smoothSolver:  Solving for omega, Initial residual = 8.23045e-06, Final residual = 8.23045e-06, No Iterations 0
smoothSolver:  Solving for k, Initial residual = 0.00507042, Final residual = 0.000400971, No Iterations 4
ExecutionTime = 0.070569 s  ClockTime = 0 s

Time = 31s

smoothSolver:  Solving for Ux, Initial residual = 0.000751422, Final residual = 7.31081e-05, No Iterations 5
smoothSolver:  Solving for Uy, Initial residual = 0.455035, Final residual = 0.0182077, No Iterations 3
Pressure gradient source: uncorrected Ubar = 1.00005, pressure gradient = 0.00808591
GAMG:  Solving for p, Initial residual = 0.0748086, Final residual = 0.00587202, No Iterations 4
time step continuity errors : sum local = 2.44358e-06, global = -3.92925e-18, cumulative = 2.03678e-17
Pressure gradient source: uncorrected Ubar = 1, pressure gradient = 0.00870707
smoothSolver:  Solving for omega, Initial residual = 8.26022e-06, Final residual = 8.26022e-06, No Iterations 0
smoothSolver:  Solving for k, Initial residual = 0.00518009, Final residual = 0.000353101, No Iterations 5
ExecutionTime = 0.07247 s  ClockTime = 0 s

Time = 32s

smoothSolver:  Solving for Ux, Initial residual = 0.000690846, Final residual = 6.70775e-05, No Iterations 5
smoothSolver:  Solving for Uy, Initial residual = 0.449888, Final residual = 0.0181299, No Iterations 3
Pressure gradient source: uncorrected Ubar = 1.00004, pressure gradient = 0.0080568
GAMG:  Solving for p, Initial residual = 0.0751706, Final residual = 0.00502448, No Iterations 4
time step continuity errors : sum local = 1.75972e-06, global = -3.95125e-18, cumulative = 1.64165e-17
Pressure gradient source: uncorrected Ubar = 1, pressure gradient = 0.00864899
smoothSolver:  Solving for omega, Initial residual = 8.28571e-06, Final residual = 8.28571e-06, No Iterations 0
smoothSolver:  Solving for k, Initial residual = 0.00520126, Final residual = 0.000360262, No Iterations 5
ExecutionTime = 0.074396 s  ClockTime = 0 s

Time = 33s

smoothSolver:  Solving for Ux, Initial residual = 0.000633468, Final residual = 6.14657e-05, No Iterations 5
smoothSolver:  Solving for Uy, Initial residual = 0.448017, Final residual = 0.0167967, No Iterations 3
Pressure gradient source: uncorrected Ubar = 1.00004, pressure gradient = 0.0080618
GAMG:  Solving for p, Initial residual = 0.0749337, Final residual = 0.00724644, No Iterations 3
time step continuity errors : sum local = 2.34871e-06, global = 6.66032e-19, cumulative = 1.70826e-17
Pressure gradient source: uncorrected Ubar = 1, pressure gradient = 0.00859691
smoothSolver:  Solving for omega, Initial residual = 8.32496e-06, Final residual = 8.32496e-06, No Iterations 0
smoothSolver:  Solving for k, Initial residual = 0.00526223, Final residual = 0.000374937, No Iterations 5
ExecutionTime = 0.076266 s  ClockTime = 0 s

Time = 34s

smoothSolver:  Solving for Ux, Initial residual = 0.000582862, Final residual = 5.63969e-05, No Iterations 5
smoothSolver:  Solving for Uy, Initial residual = 0.420047, Final residual = 0.0159187, No Iterations 3
Pressure gradient source: uncorrected Ubar = 1.00004, pressure gradient = 0.0080599
GAMG:  Solving for p, Initial residual = 0.0751575, Final residual = 0.00536329, No Iterations 4
time step continuity errors : sum local = 1.53348e-06, global = 7.58247e-18, cumulative = 2.4665e-17
Pressure gradient source: uncorrected Ubar = 1, pressure gradient = 0.00854934
smoothSolver:  Solving for omega, Initial residual = 8.34801e-06, Final residual = 8.34801e-06, No Iterations 0
smoothSolver:  Solving for k, Initial residual = 0.00529315, Final residual = 0.000330214, No Iterations 5
ExecutionTime = 0.078198 s  ClockTime = 0 s

Time = 35s

smoothSolver:  Solving for Ux, Initial residual = 0.000538433, Final residual = 5.18792e-05, No Iterations 5
smoothSolver:  Solving for Uy, Initial residual = 0.451255, Final residual = 0.0181081, No Iterations 3
Pressure gradient source: uncorrected Ubar = 1.00003, pressure gradient = 0.00806312
GAMG:  Solving for p, Initial residual = 0.0927451, Final residual = 0.0070008, No Iterations 4
time step continuity errors : sum local = 1.68096e-06, global = 5.26982e-18, cumulative = 2.99349e-17
Pressure gradient source: uncorrected Ubar = 1, pressure gradient = 0.00850656
smoothSolver:  Solving for omega, Initial residual = 8.36615e-06, Final residual = 8.36615e-06, No Iterations 0
smoothSolver:  Solving for k, Initial residual = 0.00531168, Final residual = 0.000463875, No Iterations 4
ExecutionTime = 0.080162 s  ClockTime = 0 s

Time = 36s

smoothSolver:  Solving for Ux, Initial residual = 0.000497485, Final residual = 4.77866e-05, No Iterations 5
smoothSolver:  Solving for Uy, Initial residual = 0.428496, Final residual = 0.0418003, No Iterations 2
Pressure gradient source: uncorrected Ubar = 1.00003, pressure gradient = 0.00807161
GAMG:  Solving for p, Initial residual = 0.0783635, Final residual = 0.00545362, No Iterations 4
time step continuity errors : sum local = 1.18424e-06, global = -1.61948e-19, cumulative = 2.97729e-17
Pressure gradient source: uncorrected Ubar = 1, pressure gradient = 0.00846891
smoothSolver:  Solving for omega, Initial residual = 8.38844e-06, Final residual = 8.38844e-06, No Iterations 0
smoothSolver:  Solving for k, Initial residual = 0.00536357, Final residual = 0.000320407, No Iterations 5
ExecutionTime = 0.082456 s  ClockTime = 0 s

Time = 37s

smoothSolver:  Solving for Ux, Initial residual = 0.000458469, Final residual = 4.4044e-05, No Iterations 5
smoothSolver:  Solving for Uy, Initial residual = 0.448646, Final residual = 0.0196655, No Iterations 3
Pressure gradient source: uncorrected Ubar = 1.00003, pressure gradient = 0.00805763
GAMG:  Solving for p, Initial residual = 0.0843095, Final residual = 0.00543837, No Iterations 4
time step continuity errors : sum local = 1.06409e-06, global = 7.59137e-18, cumulative = 3.73643e-17
Pressure gradient source: uncorrected Ubar = 1, pressure gradient = 0.00843271
smoothSolver:  Solving for omega, Initial residual = 8.41129e-06, Final residual = 8.41129e-06, No Iterations 0
smoothSolver:  Solving for k, Initial residual = 0.00539592, Final residual = 0.000531925, No Iterations 4
ExecutionTime = 0.08448 s  ClockTime = 0 s

Time = 38s

smoothSolver:  Solving for Ux, Initial residual = 0.000425623, Final residual = 4.07835e-05, No Iterations 5
smoothSolver:  Solving for Uy, Initial residual = 0.399724, Final residual = 0.0166823, No Iterations 3
Pressure gradient source: uncorrected Ubar = 1.00003, pressure gradient = 0.00806167
GAMG:  Solving for p, Initial residual = 0.0791232, Final residual = 0.00517848, No Iterations 4
time step continuity errors : sum local = 9.08491e-07, global = -4.95984e-18, cumulative = 3.24044e-17
Pressure gradient source: uncorrected Ubar = 1, pressure gradient = 0.0084004
smoothSolver:  Solving for omega, Initial residual = 8.43068e-06, Final residual = 8.43068e-06, No Iterations 0
smoothSolver:  Solving for k, Initial residual = 0.00549015, Final residual = 0.000378383, No Iterations 5
ExecutionTime = 0.086448 s  ClockTime = 0 s

Time = 39s

smoothSolver:  Solving for Ux, Initial residual = 0.0003965, Final residual = 3.79813e-05, No Iterations 5
smoothSolver:  Solving for Uy, Initial residual = 0.463074, Final residual = 0.0203886, No Iterations 3
Pressure gradient source: uncorrected Ubar = 1.00003, pressure gradient = 0.00804378
GAMG:  Solving for p, Initial residual = 0.0790902, Final residual = 0.00529731, No Iterations 4
time step continuity errors : sum local = 8.2336e-07, global = 7.33033e-18, cumulative = 3.97348e-17
Pressure gradient source: uncorrected Ubar = 1, pressure gradient = 0.00836856
smoothSolver:  Solving for omega, Initial residual = 8.44565e-06, Final residual = 8.44565e-06, No Iterations 0
smoothSolver:  Solving for k, Initial residual = 0.00552712, Final residual = 0.000367567, No Iterations 5
ExecutionTime = 0.088376 s  ClockTime = 0 s

Time = 40s

smoothSolver:  Solving for Ux, Initial residual = 0.000371509, Final residual = 3.55498e-05, No Iterations 5
smoothSolver:  Solving for Uy, Initial residual = 0.452449, Final residual = 0.0188321, No Iterations 3
Pressure gradient source: uncorrected Ubar = 1.00002, pressure gradient = 0.00804357
GAMG:  Solving for p, Initial residual = 0.0826367, Final residual = 0.00523642, No Iterations 4
time step continuity errors : sum local = 7.27293e-07, global = -4.71484e-18, cumulative = 3.50199e-17
Pressure gradient source: uncorrected Ubar = 1, pressure gradient = 0.0083397
smoothSolver:  Solving for omega, Initial residual = 8.46093e-06, Final residual = 8.46093e-06, No Iterations 0
smoothSolver:  Solving for k, Initial residual = 0.0055114, Final residual = 0.000326561, No Iterations 5
ExecutionTime = 0.090284 s  ClockTime = 0 s

Time = 41s

smoothSolver:  Solving for Ux, Initial residual = 0.000347725, Final residual = 3.3302e-05, No Iterations 5
smoothSolver:  Solving for Uy, Initial residual = 0.460933, Final residual = 0.0188571, No Iterations 3
Pressure gradient source: uncorrected Ubar = 1.00002, pressure gradient = 0.00804638
GAMG:  Solving for p, Initial residual = 0.0916873, Final residual = 0.00740588, No Iterations 4
time step continuity errors : sum local = 9.03949e-07, global = -3.38227e-19, cumulative = 3.46817e-17
Pressure gradient source: uncorrected Ubar = 1, pressure gradient = 0.00831395
smoothSolver:  Solving for omega, Initial residual = 8.47052e-06, Final residual = 8.47052e-06, No Iterations 0
smoothSolver:  Solving for k, Initial residual = 0.00552322, Final residual = 0.00052972, No Iterations 4
ExecutionTime = 0.092199 s  ClockTime = 0 s

Time = 42s

smoothSolver:  Solving for Ux, Initial residual = 0.000327314, Final residual = 3.1416e-05, No Iterations 5
smoothSolver:  Solving for Uy, Initial residual = 0.397334, Final residual = 0.0166373, No Iterations 3
Pressure gradient source: uncorrected Ubar = 1.00002, pressure gradient = 0.00804627
GAMG:  Solving for p, Initial residual = 0.0754064, Final residual = 0.00731319, No Iterations 4
time step continuity errors : sum local = 7.75118e-07, global = 7.05833e-19, cumulative = 3.53875e-17
Pressure gradient source: uncorrected Ubar = 1, pressure gradient = 0.0082906
smoothSolver:  Solving for omega, Initial residual = 8.47785e-06, Final residual = 8.47785e-06, No Iterations 0
smoothSolver:  Solving for k, Initial residual = 0.00555692, Final residual = 0.000388162, No Iterations 5
ExecutionTime = 0.09411 s  ClockTime = 0 s

Time = 43s

smoothSolver:  Solving for Ux, Initial residual = 0.000309405, Final residual = 2.99012e-05, No Iterations 5
smoothSolver:  Solving for Uy, Initial residual = 0.340731, Final residual = 0.0164474, No Iterations 3
Pressure gradient source: uncorrected Ubar = 1.00002, pressure gradient = 0.00803057
GAMG:  Solving for p, Initial residual = 0.0831533, Final residual = 0.00807046, No Iterations 3
time step continuity errors : sum local = 7.6968e-07, global = 4.32258e-18, cumulative = 3.97101e-17
Pressure gradient source: uncorrected Ubar = 1, pressure gradient = 0.00826723
smoothSolver:  Solving for omega, Initial residual = 8.48748e-06, Final residual = 8.48748e-06, No Iterations 0
smoothSolver:  Solving for k, Initial residual = 0.00559489, Final residual = 0.000352216, No Iterations 5
ExecutionTime = 0.096048 s  ClockTime = 0 s

Time = 44s

smoothSolver:  Solving for Ux, Initial residual = 0.000294692, Final residual = 2.8669e-05, No Iterations 5
smoothSolver:  Solving for Uy, Initial residual = 0.253693, Final residual = 0.0101903, No Iterations 3
Pressure gradient source: uncorrected Ubar = 1.00002, pressure gradient = 0.00803041
GAMG:  Solving for p, Initial residual = 0.0879246, Final residual = 0.00700912, No Iterations 4
time step continuity errors : sum local = 6.31993e-07, global = -3.194e-18, cumulative = 3.65161e-17
Pressure gradient source: uncorrected Ubar = 1, pressure gradient = 0.00824607
smoothSolver:  Solving for omega, Initial residual = 8.49421e-06, Final residual = 8.49421e-06, No Iterations 0
smoothSolver:  Solving for k, Initial residual = 0.00560569, Final residual = 0.000326741, No Iterations 5
ExecutionTime = 0.098067 s  ClockTime = 0 s

Time = 45s

smoothSolver:  Solving for Ux, Initial residual = 0.000281674, Final residual = 2.76625e-05, No Iterations 5
smoothSolver:  Solving for Uy, Initial residual = 0.252319, Final residual = 0.0114852, No Iterations 3
Pressure gradient source: uncorrected Ubar = 1.00002, pressure gradient = 0.00802789
GAMG:  Solving for p, Initial residual = 0.0762164, Final residual = 0.0066273, No Iterations 3
time step continuity errors : sum local = 5.20786e-07, global = -8.25907e-20, cumulative = 3.64335e-17
Pressure gradient source: uncorrected Ubar = 1, pressure gradient = 0.00822659
smoothSolver:  Solving for omega, Initial residual = 8.49421e-06, Final residual = 8.49421e-06, No Iterations 0
smoothSolver:  Solving for k, Initial residual = 0.0055813, Final residual = 0.000361576, No Iterations 5
ExecutionTime = 0.100238 s  ClockTime = 0 s

Time = 46s

smoothSolver:  Solving for Ux, Initial residual = 0.000271433, Final residual = 2.69465e-05, No Iterations 5
smoothSolver:  Solving for Uy, Initial residual = 0.231726, Final residual = 0.0100267, No Iterations 3
Pressure gradient source: uncorrected Ubar = 1.00001, pressure gradient = 0.00802143
GAMG:  Solving for p, Initial residual = 0.0801275, Final residual = 0.00739765, No Iterations 3
time step continuity errors : sum local = 5.3197e-07, global = -1.5286e-18, cumulative = 3.49049e-17
Pressure gradient source: uncorrected Ubar = 1, pressure gradient = 0.00820807
smoothSolver:  Solving for omega, Initial residual = 8.50061e-06, Final residual = 8.50061e-06, No Iterations 0
smoothSolver:  Solving for k, Initial residual = 0.00564923, Final residual = 0.000341161, No Iterations 5
ExecutionTime = 0.102208 s  ClockTime = 0 s

Time = 47s

smoothSolver:  Solving for Ux, Initial residual = 0.000263286, Final residual = 1.74653e-05, No Iterations 6
smoothSolver:  Solving for Uy, Initial residual = 0.25135, Final residual = 0.0126565, No Iterations 3
Pressure gradient source: uncorrected Ubar = 1.00001, pressure gradient = 0.00804613
GAMG:  Solving for p, Initial residual = 0.0755411, Final residual = 0.00508821, No Iterations 3
time step continuity errors : sum local = 3.26576e-07, global = -1.84394e-18, cumulative = 3.3061e-17
Pressure gradient source: uncorrected Ubar = 1, pressure gradient = 0.00819353
smoothSolver:  Solving for omega, Initial residual = 8.50392e-06, Final residual = 8.50392e-06, No Iterations 0
smoothSolver:  Solving for k, Initial residual = 0.00561276, Final residual = 0.000497348, No Iterations 4
ExecutionTime = 0.104108 s  ClockTime = 0 s

Time = 48s

smoothSolver:  Solving for Ux, Initial residual = 0.000254366, Final residual = 1.71247e-05, No Iterations 6
smoothSolver:  Solving for Uy, Initial residual = 0.206839, Final residual = 0.0132508, No Iterations 3
Pressure gradient source: uncorrected Ubar = 1.00001, pressure gradient = 0.00803901
GAMG:  Solving for p, Initial residual = 0.0829328, Final residual = 0.0052094, No Iterations 3
time step continuity errors : sum local = 3.26655e-07, global = -6.62805e-20, cumulative = 3.29947e-17
Pressure gradient source: uncorrected Ubar = 1, pressure gradient = 0.00817949
smoothSolver:  Solving for omega, Initial residual = 8.50962e-06, Final residual = 8.50962e-06, No Iterations 0
smoothSolver:  Solving for k, Initial residual = 0.00563827, Final residual = 0.000354244, No Iterations 5
ExecutionTime = 0.106122 s  ClockTime = 0 s

Time = 49s

smoothSolver:  Solving for Ux, Initial residual = 0.000248329, Final residual = 1.70305e-05, No Iterations 6
smoothSolver:  Solving for Uy, Initial residual = 0.181137, Final residual = 0.00922292, No Iterations 3
Pressure gradient source: uncorrected Ubar = 1.00001, pressure gradient = 0.00802413
GAMG:  Solving for p, Initial residual = 0.0677693, Final residual = 0.00342178, No Iterations 3
time step continuity errors : sum local = 1.95348e-07, global = 8.83925e-20, cumulative = 3.30831e-17
Pressure gradient source: uncorrected Ubar = 1, pressure gradient = 0.00816491
smoothSolver:  Solving for omega, Initial residual = 8.51011e-06, Final residual = 8.51011e-06, No Iterations 0
smoothSolver:  Solving for k, Initial residual = 0.00568251, Final residual = 0.000402698, No Iterations 5
ExecutionTime = 0.108021 s  ClockTime = 0 s

Time = 50s

smoothSolver:  Solving for Ux, Initial residual = 0.000243592, Final residual = 1.70379e-05, No Iterations 6
smoothSolver:  Solving for Uy, Initial residual = 0.140079, Final residual = 0.00678548, No Iterations 3
Pressure gradient source: uncorrected Ubar = 1.00001, pressure gradient = 0.00801903
GAMG:  Solving for p, Initial residual = 0.0552141, Final residual = 0.00313518, No Iterations 3
time step continuity errors : sum local = 1.62208e-07, global = -6.56537e-18, cumulative = 2.65177e-17
Pressure gradient source: uncorrected Ubar = 1, pressure gradient = 0.00815115
smoothSolver:  Solving for omega, Initial residual = 8.51073e-06, Final residual = 8.51073e-06, No Iterations 0
smoothSolver:  Solving for k, Initial residual = 0.00567011, Final residual = 0.000443562, No Iterations 5
ExecutionTime = 0.109908 s  ClockTime = 0 s

Time = 51s

smoothSolver:  Solving for Ux, Initial residual = 0.00024034, Final residual = 1.71348e-05, No Iterations 6
smoothSolver:  Solving for Uy, Initial residual = 0.119316, Final residual = 0.00621045, No Iterations 3
Pressure gradient source: uncorrected Ubar = 1.00001, pressure gradient = 0.00801232
GAMG:  Solving for p, Initial residual = 0.0534515, Final residual = 0.00299226, No Iterations 4
time step continuity errors : sum local = 1.41901e-07, global = 2.77085e-18, cumulative = 2.92886e-17
Pressure gradient source: uncorrected Ubar = 1, pressure gradient = 0.00813794
smoothSolver:  Solving for omega, Initial residual = 8.51097e-06, Final residual = 8.51097e-06, No Iterations 0
smoothSolver:  Solving for k, Initial residual = 0.00562047, Final residual = 0.000348166, No Iterations 5
ExecutionTime = 0.111867 s  ClockTime = 0 s

Time = 52s

smoothSolver:  Solving for Ux, Initial residual = 0.000237481, Final residual = 1.71494e-05, No Iterations 6
smoothSolver:  Solving for Uy, Initial residual = 0.106361, Final residual = 0.00501526, No Iterations 3
Pressure gradient source: uncorrected Ubar = 1.00001, pressure gradient = 0.00801262
GAMG:  Solving for p, Initial residual = 0.0783983, Final residual = 0.0049559, No Iterations 3
time step continuity errors : sum local = 2.23041e-07, global = 3.6142e-18, cumulative = 3.29028e-17
Pressure gradient source: uncorrected Ubar = 1, pressure gradient = 0.00812615
smoothSolver:  Solving for omega, Initial residual = 8.50516e-06, Final residual = 8.50516e-06, No Iterations 0
smoothSolver:  Solving for k, Initial residual = 0.00560807, Final residual = 0.000553085, No Iterations 4
ExecutionTime = 0.113808 s  ClockTime = 0 s

Time = 53s

smoothSolver:  Solving for Ux, Initial residual = 0.000235547, Final residual = 1.71312e-05, No Iterations 6
smoothSolver:  Solving for Uy, Initial residual = 0.127335, Final residual = 0.00685232, No Iterations 3
Pressure gradient source: uncorrected Ubar = 1.00001, pressure gradient = 0.00801249
GAMG:  Solving for p, Initial residual = 0.0793646, Final residual = 0.00440802, No Iterations 3
time step continuity errors : sum local = 1.77731e-07, global = 1.21935e-17, cumulative = 4.50963e-17
Pressure gradient source: uncorrected Ubar = 1, pressure gradient = 0.00811557
smoothSolver:  Solving for omega, Initial residual = 8.50212e-06, Final residual = 8.50212e-06, No Iterations 0
smoothSolver:  Solving for k, Initial residual = 0.00557341, Final residual = 0.000517228, No Iterations 4
ExecutionTime = 0.116067 s  ClockTime = 0 s

Time = 54s

smoothSolver:  Solving for Ux, Initial residual = 0.000234072, Final residual = 1.71058e-05, No Iterations 6
smoothSolver:  Solving for Uy, Initial residual = 0.126368, Final residual = 0.00604355, No Iterations 3
Pressure gradient source: uncorrected Ubar = 1.00001, pressure gradient = 0.00800714
GAMG:  Solving for p, Initial residual = 0.0787773, Final residual = 0.00513954, No Iterations 3
time step continuity errors : sum local = 2.01205e-07, global = 1.7519e-18, cumulative = 4.68482e-17
Pressure gradient source: uncorrected Ubar = 1, pressure gradient = 0.00810539
smoothSolver:  Solving for omega, Initial residual = 8.50304e-06, Final residual = 8.50304e-06, No Iterations 0
smoothSolver:  Solving for k, Initial residual = 0.00556349, Final residual = 0.000492909, No Iterations 4
ExecutionTime = 0.11806 s  ClockTime = 0 s

Time = 55s

smoothSolver:  Solving for Ux, Initial residual = 0.000231521, Final residual = 1.70257e-05, No Iterations 6
smoothSolver:  Solving for Uy, Initial residual = 0.105188, Final residual = 0.00549361, No Iterations 3
Pressure gradient source: uncorrected Ubar = 1.00001, pressure gradient = 0.00800392
GAMG:  Solving for p, Initial residual = 0.0641249, Final residual = 0.00639908, No Iterations 2
time step continuity errors : sum local = 2.42244e-07, global = -8.38119e-19, cumulative = 4.60101e-17
Pressure gradient source: uncorrected Ubar = 1, pressure gradient = 0.00809585
smoothSolver:  Solving for omega, Initial residual = 8.49829e-06, Final residual = 8.49829e-06, No Iterations 0
smoothSolver:  Solving for k, Initial residual = 0.0056346, Final residual = 0.000362499, No Iterations 5
ExecutionTime = 0.119938 s  ClockTime = 0 s

Time = 56s

smoothSolver:  Solving for Ux, Initial residual = 0.000229704, Final residual = 1.6975e-05, No Iterations 6
smoothSolver:  Solving for Uy, Initial residual = 0.0840411, Final residual = 0.00447391, No Iterations 3
Pressure gradient source: uncorrected Ubar = 1.00001, pressure gradient = 0.00799525
GAMG:  Solving for p, Initial residual = 0.0599573, Final residual = 0.00381251, No Iterations 3
time step continuity errors : sum local = 1.32608e-07, global = -2.54714e-18, cumulative = 4.3463e-17
Pressure gradient source: uncorrected Ubar = 1, pressure gradient = 0.00808619
smoothSolver:  Solving for omega, Initial residual = 8.49247e-06, Final residual = 8.49247e-06, No Iterations 0
smoothSolver:  Solving for k, Initial residual = 0.00564546, Final residual = 0.000380944, No Iterations 5
ExecutionTime = 0.121848 s  ClockTime = 0 s

Time = 57s

smoothSolver:  Solving for Ux, Initial residual = 0.000228037, Final residual = 1.69306e-05, No Iterations 6
smoothSolver:  Solving for Uy, Initial residual = 0.0876877, Final residual = 0.00649708, No Iterations 3
Pressure gradient source: uncorrected Ubar = 1.00001, pressure gradient = 0.00799058
GAMG:  Solving for p, Initial residual = 0.0508432, Final residual = 0.00400932, No Iterations 3
time step continuity errors : sum local = 1.2318e-07, global = 3.51007e-18, cumulative = 4.6973e-17
Pressure gradient source: uncorrected Ubar = 1, pressure gradient = 0.00807695
smoothSolver:  Solving for omega, Initial residual = 8.48715e-06, Final residual = 8.48715e-06, No Iterations 0
smoothSolver:  Solving for k, Initial residual = 0.00560575, Final residual = 0.00036633, No Iterations 5
ExecutionTime = 0.123723 s  ClockTime = 0 s

Time = 58s

smoothSolver:  Solving for Ux, Initial residual = 0.000225978, Final residual = 1.68596e-05, No Iterations 6
smoothSolver:  Solving for Uy, Initial residual = 0.0788151, Final residual = 0.00578007, No Iterations 3
Pressure gradient source: uncorrected Ubar = 1.00001, pressure gradient = 0.0079872
GAMG:  Solving for p, Initial residual = 0.0548084, Final residual = 0.00320089, No Iterations 3
time step continuity errors : sum local = 9.50477e-08, global = 4.84463e-20, cumulative = 4.70215e-17
Pressure gradient source: uncorrected Ubar = 1, pressure gradient = 0.00806825
smoothSolver:  Solving for omega, Initial residual = 8.48312e-06, Final residual = 8.48312e-06, No Iterations 0
smoothSolver:  Solving for k, Initial residual = 0.00554202, Final residual = 0.000549119, No Iterations 4
ExecutionTime = 0.125634 s  ClockTime = 0 s

Time = 59s

smoothSolver:  Solving for Ux, Initial residual = 0.000223173, Final residual = 1.67333e-05, No Iterations 6
smoothSolver:  Solving for Uy, Initial residual = 0.0652286, Final residual = 0.00482043, No Iterations 3
Pressure gradient source: uncorrected Ubar = 1.00001, pressure gradient = 0.00798764
GAMG:  Solving for p, Initial residual = 0.0531473, Final residual = 0.00495325, No Iterations 3
time step continuity errors : sum local = 1.47225e-07, global = -1.03702e-18, cumulative = 4.59845e-17
Pressure gradient source: uncorrected Ubar = 1, pressure gradient = 0.00806056
smoothSolver:  Solving for omega, Initial residual = 8.47687e-06, Final residual = 8.47687e-06, No Iterations 0
smoothSolver:  Solving for k, Initial residual = 0.00552832, Final residual = 0.000320084, No Iterations 5
ExecutionTime = 0.127512 s  ClockTime = 0 s

Time = 60s

smoothSolver:  Solving for Ux, Initial residual = 0.000221155, Final residual = 1.66369e-05, No Iterations 6
smoothSolver:  Solving for Uy, Initial residual = 0.0616348, Final residual = 0.00299512, No Iterations 3
Pressure gradient source: uncorrected Ubar = 1.00001, pressure gradient = 0.00798062
GAMG:  Solving for p, Initial residual = 0.0533755, Final residual = 0.00428191, No Iterations 4
time step continuity errors : sum local = 1.32451e-07, global = -1.91713e-18, cumulative = 4.40673e-17
Pressure gradient source: uncorrected Ubar = 1, pressure gradient = 0.00805279
smoothSolver:  Solving for omega, Initial residual = 8.4696e-06, Final residual = 8.4696e-06, No Iterations 0
smoothSolver:  Solving for k, Initial residual = 0.00554339, Final residual = 0.000375005, No Iterations 5
ExecutionTime = 0.129517 s  ClockTime = 0 s

Time = 61s

smoothSolver:  Solving for Ux, Initial residual = 0.000218885, Final residual = 1.65043e-05, No Iterations 6
smoothSolver:  Solving for Uy, Initial residual = 0.0636499, Final residual = 0.00372813, No Iterations 3
Pressure gradient source: uncorrected Ubar = 1.00001, pressure gradient = 0.0079767
GAMG:  Solving for p, Initial residual = 0.0562463, Final residual = 0.00364298, No Iterations 4
time step continuity errors : sum local = 1.01363e-07, global = -3.77294e-18, cumulative = 4.02944e-17
Pressure gradient source: uncorrected Ubar = 1, pressure gradient = 0.00804535
smoothSolver:  Solving for omega, Initial residual = 8.4632e-06, Final residual = 8.4632e-06, No Iterations 0
smoothSolver:  Solving for k, Initial residual = 0.00556273, Final residual = 0.000335229, No Iterations 5
ExecutionTime = 0.131659 s  ClockTime = 0 s

Time = 62s

smoothSolver:  Solving for Ux, Initial residual = 0.000216126, Final residual = 1.63423e-05, No Iterations 6
smoothSolver:  Solving for Uy, Initial residual = 0.0715927, Final residual = 0.0042119, No Iterations 3
Pressure gradient source: uncorrected Ubar = 1.00001, pressure gradient = 0.00797544
GAMG:  Solving for p, Initial residual = 0.0487104, Final residual = 0.00306167, No Iterations 4
time step continuity errors : sum local = 8.10453e-08, global = -9.52366e-18, cumulative = 3.07707e-17
Pressure gradient source: uncorrected Ubar = 1, pressure gradient = 0.00803857
smoothSolver:  Solving for omega, Initial residual = 8.45554e-06, Final residual = 8.45554e-06, No Iterations 0
smoothSolver:  Solving for k, Initial residual = 0.00554487, Final residual = 0.000360067, No Iterations 5
ExecutionTime = 0.133825 s  ClockTime = 0 s

Time = 63s

smoothSolver:  Solving for Ux, Initial residual = 0.000213579, Final residual = 1.61853e-05, No Iterations 6
smoothSolver:  Solving for Uy, Initial residual = 0.0714894, Final residual = 0.00362122, No Iterations 3
Pressure gradient source: uncorrected Ubar = 1, pressure gradient = 0.00797116
GAMG:  Solving for p, Initial residual = 0.0501056, Final residual = 0.00397291, No Iterations 3
time step continuity errors : sum local = 1.05059e-07, global = -7.06022e-19, cumulative = 3.00647e-17
Pressure gradient source: uncorrected Ubar = 1, pressure gradient = 0.00803198
smoothSolver:  Solving for omega, Initial residual = 8.4498e-06, Final residual = 8.4498e-06, No Iterations 0
smoothSolver:  Solving for k, Initial residual = 0.0054757, Final residual = 0.000310885, No Iterations 5
ExecutionTime = 0.135771 s  ClockTime = 0 s

Time = 64s

smoothSolver:  Solving for Ux, Initial residual = 0.000210846, Final residual = 1.60174e-05, No Iterations 6
smoothSolver:  Solving for Uy, Initial residual = 0.0531781, Final residual = 0.0027775, No Iterations 3
Pressure gradient source: uncorrected Ubar = 1, pressure gradient = 0.00796859
GAMG:  Solving for p, Initial residual = 0.0459417, Final residual = 0.00393196, No Iterations 3
time step continuity errors : sum local = 1.00622e-07, global = -5.12878e-18, cumulative = 2.49359e-17
Pressure gradient source: uncorrected Ubar = 1, pressure gradient = 0.00802579
smoothSolver:  Solving for omega, Initial residual = 8.43968e-06, Final residual = 8.43968e-06, No Iterations 0
smoothSolver:  Solving for k, Initial residual = 0.00544752, Final residual = 0.00053107, No Iterations 4
ExecutionTime = 0.137688 s  ClockTime = 0 s

Time = 65s

smoothSolver:  Solving for Ux, Initial residual = 0.000207773, Final residual = 1.58251e-05, No Iterations 6
smoothSolver:  Solving for Uy, Initial residual = 0.0606322, Final residual = 0.00339223, No Iterations 3
Pressure gradient source: uncorrected Ubar = 1, pressure gradient = 0.00796758
GAMG:  Solving for p, Initial residual = 0.0430179, Final residual = 0.00395605, No Iterations 3
time step continuity errors : sum local = 9.99726e-08, global = 2.52629e-19, cumulative = 2.51885e-17
Pressure gradient source: uncorrected Ubar = 1, pressure gradient = 0.00802016
smoothSolver:  Solving for omega, Initial residual = 8.4357e-06, Final residual = 8.4357e-06, No Iterations 0
smoothSolver:  Solving for k, Initial residual = 0.0054708, Final residual = 0.000360443, No Iterations 5
ExecutionTime = 0.139563 s  ClockTime = 0 s

Time = 66s

smoothSolver:  Solving for Ux, Initial residual = 0.000205051, Final residual = 1.56453e-05, No Iterations 6
smoothSolver:  Solving for Uy, Initial residual = 0.0504029, Final residual = 0.00274239, No Iterations 3
Pressure gradient source: uncorrected Ubar = 1, pressure gradient = 0.00796169
GAMG:  Solving for p, Initial residual = 0.0348351, Final residual = 0.0023957, No Iterations 3
time step continuity errors : sum local = 5.93197e-08, global = -2.48188e-18, cumulative = 2.27067e-17
Pressure gradient source: uncorrected Ubar = 1, pressure gradient = 0.00801439
smoothSolver:  Solving for omega, Initial residual = 8.43317e-06, Final residual = 8.43317e-06, No Iterations 0
smoothSolver:  Solving for k, Initial residual = 0.00545702, Final residual = 0.000374189, No Iterations 5
ExecutionTime = 0.141476 s  ClockTime = 0 s

Time = 67s

smoothSolver:  Solving for Ux, Initial residual = 0.000202207, Final residual = 1.54605e-05, No Iterations 6
smoothSolver:  Solving for Uy, Initial residual = 0.0408526, Final residual = 0.00186118, No Iterations 3
Pressure gradient source: uncorrected Ubar = 1, pressure gradient = 0.00795891
GAMG:  Solving for p, Initial residual = 0.0279296, Final residual = 0.00233699, No Iterations 3
time step continuity errors : sum local = 5.36001e-08, global = 5.60562e-18, cumulative = 2.83123e-17
Pressure gradient source: uncorrected Ubar = 1, pressure gradient = 0.0080089
smoothSolver:  Solving for omega, Initial residual = 8.42087e-06, Final residual = 8.42087e-06, No Iterations 0
smoothSolver:  Solving for k, Initial residual = 0.00546124, Final residual = 0.000340326, No Iterations 5
ExecutionTime = 0.143352 s  ClockTime = 0 s

Time = 68s

smoothSolver:  Solving for Ux, Initial residual = 0.000199189, Final residual = 1.52538e-05, No Iterations 6
smoothSolver:  Solving for Uy, Initial residual = 0.0470968, Final residual = 0.0025592, No Iterations 3
Pressure gradient source: uncorrected Ubar = 1, pressure gradient = 0.00795743
GAMG:  Solving for p, Initial residual = 0.0316758, Final residual = 0.00258962, No Iterations 3
time step continuity errors : sum local = 5.86243e-08, global = -3.11589e-18, cumulative = 2.51964e-17
Pressure gradient source: uncorrected Ubar = 1, pressure gradient = 0.00800385
smoothSolver:  Solving for omega, Initial residual = 8.41321e-06, Final residual = 8.41321e-06, No Iterations 0
smoothSolver:  Solving for k, Initial residual = 0.00542154, Final residual = 0.000338675, No Iterations 5
ExecutionTime = 0.145307 s  ClockTime = 0 s

Time = 69s

smoothSolver:  Solving for Ux, Initial residual = 0.000196364, Final residual = 1.50523e-05, No Iterations 6
smoothSolver:  Solving for Uy, Initial residual = 0.0485924, Final residual = 0.00260468, No Iterations 3
Pressure gradient source: uncorrected Ubar = 1, pressure gradient = 0.00795405
GAMG:  Solving for p, Initial residual = 0.0328446, Final residual = 0.00325677, No Iterations 3
time step continuity errors : sum local = 7.25033e-08, global = 7.45985e-19, cumulative = 2.59424e-17
Pressure gradient source: uncorrected Ubar = 1, pressure gradient = 0.00799894
smoothSolver:  Solving for omega, Initial residual = 8.40663e-06, Final residual = 8.40663e-06, No Iterations 0
smoothSolver:  Solving for k, Initial residual = 0.00535976, Final residual = 0.000319341, No Iterations 5
ExecutionTime = 0.14719 s  ClockTime = 0 s

Time = 70s

smoothSolver:  Solving for Ux, Initial residual = 0.000193331, Final residual = 1.48347e-05, No Iterations 6
smoothSolver:  Solving for Uy, Initial residual = 0.0443218, Final residual = 0.00180312, No Iterations 3
Pressure gradient source: uncorrected Ubar = 1, pressure gradient = 0.00795194
GAMG:  Solving for p, Initial residual = 0.0274023, Final residual = 0.00181962, No Iterations 3
time step continuity errors : sum local = 3.9075e-08, global = 6.97787e-18, cumulative = 3.29202e-17
Pressure gradient source: uncorrected Ubar = 1, pressure gradient = 0.00799431
smoothSolver:  Solving for omega, Initial residual = 8.40084e-06, Final residual = 8.40084e-06, No Iterations 0
smoothSolver:  Solving for k, Initial residual = 0.005429, Final residual = 0.000373724, No Iterations 5
ExecutionTime = 0.149527 s  ClockTime = 0 s

Time = 71s

smoothSolver:  Solving for Ux, Initial residual = 0.000190118, Final residual = 1.46079e-05, No Iterations 6
smoothSolver:  Solving for Uy, Initial residual = 0.0422182, Final residual = 0.00195101, No Iterations 3
Pressure gradient source: uncorrected Ubar = 1, pressure gradient = 0.00794915
GAMG:  Solving for p, Initial residual = 0.0289585, Final residual = 0.00164904, No Iterations 3
time step continuity errors : sum local = 3.40096e-08, global = -1.02727e-17, cumulative = 2.26476e-17
Pressure gradient source: uncorrected Ubar = 1, pressure gradient = 0.00798985
smoothSolver:  Solving for omega, Initial residual = 8.39449e-06, Final residual = 8.39449e-06, No Iterations 0
smoothSolver:  Solving for k, Initial residual = 0.00535224, Final residual = 0.000512555, No Iterations 4
ExecutionTime = 0.151508 s  ClockTime = 0 s

Time = 72s

smoothSolver:  Solving for Ux, Initial residual = 0.000186737, Final residual = 1.43631e-05, No Iterations 6
smoothSolver:  Solving for Uy, Initial residual = 0.0271609, Final residual = 0.0013097, No Iterations 3
Pressure gradient source: uncorrected Ubar = 1, pressure gradient = 0.00794889
GAMG:  Solving for p, Initial residual = 0.0270581, Final residual = 0.00160597, No Iterations 3
time step continuity errors : sum local = 3.32352e-08, global = 5.70267e-18, cumulative = 2.83503e-17
Pressure gradient source: uncorrected Ubar = 1, pressure gradient = 0.00798588
smoothSolver:  Solving for omega, Initial residual = 8.38959e-06, Final residual = 8.38959e-06, No Iterations 0
smoothSolver:  Solving for k, Initial residual = 0.00530126, Final residual = 0.000303294, No Iterations 5
ExecutionTime = 0.153458 s  ClockTime = 0 s

Time = 73s

smoothSolver:  Solving for Ux, Initial residual = 0.000183605, Final residual = 1.41282e-05, No Iterations 6
smoothSolver:  Solving for Uy, Initial residual = 0.0283747, Final residual = 0.00140873, No Iterations 3
Pressure gradient source: uncorrected Ubar = 1, pressure gradient = 0.00794529
GAMG:  Solving for p, Initial residual = 0.0292408, Final residual = 0.00265732, No Iterations 3
time step continuity errors : sum local = 5.2493e-08, global = -4.5643e-18, cumulative = 2.3786e-17
Pressure gradient source: uncorrected Ubar = 1, pressure gradient = 0.0079819
smoothSolver:  Solving for omega, Initial residual = 8.37938e-06, Final residual = 8.37938e-06, No Iterations 0
smoothSolver:  Solving for k, Initial residual = 0.00537338, Final residual = 0.000404671, No Iterations 5
ExecutionTime = 0.155332 s  ClockTime = 0 s

Time = 74s

smoothSolver:  Solving for Ux, Initial residual = 0.000180373, Final residual = 1.38954e-05, No Iterations 6
smoothSolver:  Solving for Uy, Initial residual = 0.0301121, Final residual = 0.00156261, No Iterations 3
Pressure gradient source: uncorrected Ubar = 1, pressure gradient = 0.00794218
GAMG:  Solving for p, Initial residual = 0.0205848, Final residual = 0.00177262, No Iterations 4
time step continuity errors : sum local = 3.66047e-08, global = 4.35089e-18, cumulative = 2.81368e-17
Pressure gradient source: uncorrected Ubar = 1, pressure gradient = 0.00797798
smoothSolver:  Solving for omega, Initial residual = 8.37088e-06, Final residual = 8.37088e-06, No Iterations 0
smoothSolver:  Solving for k, Initial residual = 0.00531903, Final residual = 0.000354649, No Iterations 5
ExecutionTime = 0.157243 s  ClockTime = 0 s

Time = 75s

smoothSolver:  Solving for Ux, Initial residual = 0.000176996, Final residual = 1.36499e-05, No Iterations 6
smoothSolver:  Solving for Uy, Initial residual = 0.0498542, Final residual = 0.00263026, No Iterations 3
Pressure gradient source: uncorrected Ubar = 1, pressure gradient = 0.00794102
GAMG:  Solving for p, Initial residual = 0.0353626, Final residual = 0.00301462, No Iterations 3
time step continuity errors : sum local = 5.77271e-08, global = 5.90269e-18, cumulative = 3.40395e-17
Pressure gradient source: uncorrected Ubar = 1, pressure gradient = 0.00797437
smoothSolver:  Solving for omega, Initial residual = 8.3656e-06, Final residual = 8.3656e-06, No Iterations 0
smoothSolver:  Solving for k, Initial residual = 0.0052769, Final residual = 0.00051638, No Iterations 4
ExecutionTime = 0.159118 s  ClockTime = 0 s

Time = 76s

smoothSolver:  Solving for Ux, Initial residual = 0.0001737, Final residual = 1.33998e-05, No Iterations 6
smoothSolver:  Solving for Uy, Initial residual = 0.0515485, Final residual = 0.00289304, No Iterations 3
Pressure gradient source: uncorrected Ubar = 1, pressure gradient = 0.00793995
GAMG:  Solving for p, Initial residual = 0.0341713, Final residual = 0.00286914, No Iterations 3
time step continuity errors : sum local = 5.46793e-08, global = 1.317e-18, cumulative = 3.53565e-17
Pressure gradient source: uncorrected Ubar = 1, pressure gradient = 0.00797105
smoothSolver:  Solving for omega, Initial residual = 8.36142e-06, Final residual = 8.36142e-06, No Iterations 0
smoothSolver:  Solving for k, Initial residual = 0.00523627, Final residual = 0.0005203, No Iterations 4
ExecutionTime = 0.161016 s  ClockTime = 0 s

Time = 77s

smoothSolver:  Solving for Ux, Initial residual = 0.00017045, Final residual = 1.31526e-05, No Iterations 6
smoothSolver:  Solving for Uy, Initial residual = 0.0371427, Final residual = 0.00252076, No Iterations 3
Pressure gradient source: uncorrected Ubar = 1, pressure gradient = 0.00793768
GAMG:  Solving for p, Initial residual = 0.0219672, Final residual = 0.00129976, No Iterations 4
time step continuity errors : sum local = 2.6688e-08, global = -4.26001e-18, cumulative = 3.10965e-17
Pressure gradient source: uncorrected Ubar = 1, pressure gradient = 0.00796782
smoothSolver:  Solving for omega, Initial residual = 8.35463e-06, Final residual = 8.35463e-06, No Iterations 0
smoothSolver:  Solving for k, Initial residual = 0.00527538, Final residual = 0.000381551, No Iterations 5
ExecutionTime = 0.163 s  ClockTime = 0 s

Time = 78s

smoothSolver:  Solving for Ux, Initial residual = 0.000167363, Final residual = 1.29176e-05, No Iterations 6
smoothSolver:  Solving for Uy, Initial residual = 0.0515147, Final residual = 0.0028554, No Iterations 3
Pressure gradient source: uncorrected Ubar = 1, pressure gradient = 0.00793438
GAMG:  Solving for p, Initial residual = 0.0218068, Final residual = 0.00153986, No Iterations 5
time step continuity errors : sum local = 2.85835e-08, global = 6.80953e-18, cumulative = 3.79061e-17
Pressure gradient source: uncorrected Ubar = 1, pressure gradient = 0.00796454
smoothSolver:  Solving for omega, Initial residual = 8.34594e-06, Final residual = 8.34594e-06, No Iterations 0
smoothSolver:  Solving for k, Initial residual = 0.00527774, Final residual = 0.000391547, No Iterations 5
ExecutionTime = 0.16568 s  ClockTime = 0 s

Time = 79s

smoothSolver:  Solving for Ux, Initial residual = 0.000164207, Final residual = 1.268e-05, No Iterations 6
smoothSolver:  Solving for Uy, Initial residual = 0.0484794, Final residual = 0.00295141, No Iterations 3
Pressure gradient source: uncorrected Ubar = 1, pressure gradient = 0.00793224
GAMG:  Solving for p, Initial residual = 0.0193974, Final residual = 0.00167346, No Iterations 6
time step continuity errors : sum local = 3.097e-08, global = -5.48026e-18, cumulative = 3.24258e-17
Pressure gradient source: uncorrected Ubar = 1, pressure gradient = 0.00796137
smoothSolver:  Solving for omega, Initial residual = 8.33757e-06, Final residual = 8.33757e-06, No Iterations 0
smoothSolver:  Solving for k, Initial residual = 0.00521727, Final residual = 0.000332871, No Iterations 5
ExecutionTime = 0.167905 s  ClockTime = 0 s

Time = 80s

smoothSolver:  Solving for Ux, Initial residual = 0.000160952, Final residual = 1.2435e-05, No Iterations 6
smoothSolver:  Solving for Uy, Initial residual = 0.0604964, Final residual = 0.00301394, No Iterations 3
Pressure gradient source: uncorrected Ubar = 1, pressure gradient = 0.00793115
GAMG:  Solving for p, Initial residual = 0.028968, Final residual = 0.00239037, No Iterations 3
time step continuity errors : sum local = 4.19337e-08, global = 1.09877e-18, cumulative = 3.35246e-17
Pressure gradient source: uncorrected Ubar = 1, pressure gradient = 0.00795843
smoothSolver:  Solving for omega, Initial residual = 8.33051e-06, Final residual = 8.33051e-06, No Iterations 0
smoothSolver:  Solving for k, Initial residual = 0.00517881, Final residual = 0.000444542, No Iterations 4
ExecutionTime = 0.170001 s  ClockTime = 0 s

Time = 81s

smoothSolver:  Solving for Ux, Initial residual = 0.000157634, Final residual = 1.21824e-05, No Iterations 6
smoothSolver:  Solving for Uy, Initial residual = 0.0499768, Final residual = 0.00306629, No Iterations 3
Pressure gradient source: uncorrected Ubar = 1, pressure gradient = 0.00793038
GAMG:  Solving for p, Initial residual = 0.0282821, Final residual = 0.0014971, No Iterations 4
time step continuity errors : sum local = 2.79502e-08, global = -4.91636e-18, cumulative = 2.86082e-17
Pressure gradient source: uncorrected Ubar = 1, pressure gradient = 0.00795575
smoothSolver:  Solving for omega, Initial residual = 8.32643e-06, Final residual = 8.32643e-06, No Iterations 0
smoothSolver:  Solving for k, Initial residual = 0.00515452, Final residual = 0.000507844, No Iterations 4
ExecutionTime = 0.172059 s  ClockTime = 0 s

Time = 82s

smoothSolver:  Solving for Ux, Initial residual = 0.000154392, Final residual = 1.19343e-05, No Iterations 6
smoothSolver:  Solving for Uy, Initial residual = 0.0414646, Final residual = 0.00209664, No Iterations 3
Pressure gradient source: uncorrected Ubar = 1, pressure gradient = 0.00792834
GAMG:  Solving for p, Initial residual = 0.023001, Final residual = 0.0022799, No Iterations 4
time step continuity errors : sum local = 4.05916e-08, global = 3.04209e-18, cumulative = 3.16503e-17
Pressure gradient source: uncorrected Ubar = 1, pressure gradient = 0.00795312
smoothSolver:  Solving for omega, Initial residual = 8.31974e-06, Final residual = 8.31974e-06, No Iterations 0
smoothSolver:  Solving for k, Initial residual = 0.00515789, Final residual = 0.000310457, No Iterations 5
ExecutionTime = 0.174114 s  ClockTime = 0 s

Time = 83s

smoothSolver:  Solving for Ux, Initial residual = 0.000151259, Final residual = 1.16955e-05, No Iterations 6
smoothSolver:  Solving for Uy, Initial residual = 0.0279881, Final residual = 0.00135795, No Iterations 3
Pressure gradient source: uncorrected Ubar = 1, pressure gradient = 0.00792583
GAMG:  Solving for p, Initial residual = 0.0221296, Final residual = 0.00155874, No Iterations 5
time step continuity errors : sum local = 2.67178e-08, global = -1.32357e-19, cumulative = 3.15179e-17
Pressure gradient source: uncorrected Ubar = 1, pressure gradient = 0.00795048
smoothSolver:  Solving for omega, Initial residual = 8.31941e-06, Final residual = 8.31941e-06, No Iterations 0
smoothSolver:  Solving for k, Initial residual = 0.00510027, Final residual = 0.000311674, No Iterations 5
ExecutionTime = 0.176167 s  ClockTime = 0 s

Time = 84s

smoothSolver:  Solving for Ux, Initial residual = 0.00014813, Final residual = 1.14568e-05, No Iterations 6
smoothSolver:  Solving for Uy, Initial residual = 0.0347484, Final residual = 0.00184287, No Iterations 3
Pressure gradient source: uncorrected Ubar = 1, pressure gradient = 0.00792415
GAMG:  Solving for p, Initial residual = 0.0236739, Final residual = 0.00197252, No Iterations 5
time step continuity errors : sum local = 3.25347e-08, global = 1.82923e-18, cumulative = 3.33472e-17
Pressure gradient source: uncorrected Ubar = 1, pressure gradient = 0.00794794
smoothSolver:  Solving for omega, Initial residual = 8.31669e-06, Final residual = 8.31669e-06, No Iterations 0
smoothSolver:  Solving for k, Initial residual = 0.00512, Final residual = 0.000324768, No Iterations 5
ExecutionTime = 0.178252 s  ClockTime = 0 s

Time = 85s

smoothSolver:  Solving for Ux, Initial residual = 0.000145207, Final residual = 1.12268e-05, No Iterations 6
smoothSolver:  Solving for Uy, Initial residual = 0.0426755, Final residual = 0.00193521, No Iterations 3
Pressure gradient source: uncorrected Ubar = 1, pressure gradient = 0.00792232
GAMG:  Solving for p, Initial residual = 0.0240927, Final residual = 0.00194441, No Iterations 5
time step continuity errors : sum local = 3.20245e-08, global = -1.01815e-17, cumulative = 2.31657e-17
Pressure gradient source: uncorrected Ubar = 1, pressure gradient = 0.00794546
smoothSolver:  Solving for omega, Initial residual = 8.30935e-06, Final residual = 8.30935e-06, No Iterations 0
smoothSolver:  Solving for k, Initial residual = 0.00511704, Final residual = 0.000303157, No Iterations 5
ExecutionTime = 0.180466 s  ClockTime = 0 s

Time = 86s

smoothSolver:  Solving for Ux, Initial residual = 0.00014221, Final residual = 1.09967e-05, No Iterations 6
smoothSolver:  Solving for Uy, Initial residual = 0.046889, Final residual = 0.00245997, No Iterations 3
Pressure gradient source: uncorrected Ubar = 1, pressure gradient = 0.00792102
GAMG:  Solving for p, Initial residual = 0.0179698, Final residual = 0.00145638, No Iterations 5
time step continuity errors : sum local = 2.35192e-08, global = 2.28222e-18, cumulative = 2.54479e-17
Pressure gradient source: uncorrected Ubar = 1, pressure gradient = 0.00794312
smoothSolver:  Solving for omega, Initial residual = 8.30537e-06, Final residual = 8.30537e-06, No Iterations 0
smoothSolver:  Solving for k, Initial residual = 0.0051144, Final residual = 0.000388405, No Iterations 5
ExecutionTime = 0.183014 s  ClockTime = 0 s

Time = 87s

smoothSolver:  Solving for Ux, Initial residual = 0.000139215, Final residual = 1.07699e-05, No Iterations 6
smoothSolver:  Solving for Uy, Initial residual = 0.0506984, Final residual = 0.0030204, No Iterations 3
Pressure gradient source: uncorrected Ubar = 1, pressure gradient = 0.00791913
GAMG:  Solving for p, Initial residual = 0.0189129, Final residual = 0.000978861, No Iterations 6
time step continuity errors : sum local = 1.57667e-08, global = -3.36299e-18, cumulative = 2.20849e-17
Pressure gradient source: uncorrected Ubar = 1, pressure gradient = 0.00794081
smoothSolver:  Solving for omega, Initial residual = 8.29907e-06, Final residual = 8.29907e-06, No Iterations 0
smoothSolver:  Solving for k, Initial residual = 0.0050752, Final residual = 0.000356161, No Iterations 5
ExecutionTime = 0.185655 s  ClockTime = 0 s

Time = 88s

smoothSolver:  Solving for Ux, Initial residual = 0.000136249, Final residual = 1.0544e-05, No Iterations 6
smoothSolver:  Solving for Uy, Initial residual = 0.0419398, Final residual = 0.0025119, No Iterations 3
Pressure gradient source: uncorrected Ubar = 1, pressure gradient = 0.00791783
GAMG:  Solving for p, Initial residual = 0.0168678, Final residual = 0.000820254, No Iterations 6
time step continuity errors : sum local = 1.21923e-08, global = 4.68488e-18, cumulative = 2.67698e-17
Pressure gradient source: uncorrected Ubar = 1, pressure gradient = 0.00793861
smoothSolver:  Solving for omega, Initial residual = 8.29403e-06, Final residual = 8.29403e-06, No Iterations 0
smoothSolver:  Solving for k, Initial residual = 0.00506329, Final residual = 0.000292195, No Iterations 5
ExecutionTime = 0.187805 s  ClockTime = 0 s

Time = 89s

smoothSolver:  Solving for Ux, Initial residual = 0.000133307, Final residual = 1.03165e-05, No Iterations 6
smoothSolver:  Solving for Uy, Initial residual = 0.04505, Final residual = 0.0022895, No Iterations 3
Pressure gradient source: uncorrected Ubar = 1, pressure gradient = 0.00791688
GAMG:  Solving for p, Initial residual = 0.0223355, Final residual = 0.0012189, No Iterations 4
time step continuity errors : sum local = 1.76354e-08, global = 5.77551e-18, cumulative = 3.25453e-17
Pressure gradient source: uncorrected Ubar = 1, pressure gradient = 0.00793656
smoothSolver:  Solving for omega, Initial residual = 8.29135e-06, Final residual = 8.29135e-06, No Iterations 0
smoothSolver:  Solving for k, Initial residual = 0.00502906, Final residual = 0.000301482, No Iterations 5
[...]
Pressure gradient source: uncorrected Ubar = 1, pressure gradient = 0.00866909
smoothSolver:  Solving for omega, Initial residual = 6.52794e-06, Final residual = 6.52794e-06, No Iterations 0
smoothSolver:  Solving for k, Initial residual = 2.03129e-05, Final residual = 6.86303e-06, No Iterations 2
ExecutionTime = 2.07122 s  ClockTime = 2 s

Time = 1018s

smoothSolver:  Solving for Ux, Initial residual = 2.15623e-05, Final residual = 8.7227e-06, No Iterations 2
smoothSolver:  Solving for Uy, Initial residual = 0.0118286, Final residual = 0.000781223, No Iterations 3
Pressure gradient source: uncorrected Ubar = 1, pressure gradient = 0.00866835
GAMG:  Solving for p, Initial residual = 0.0058123, Final residual = 0.000401198, No Iterations 5
time step continuity errors : sum local = 5.29174e-09, global = -9.57389e-18, cumulative = 2.6971e-16
Pressure gradient source: uncorrected Ubar = 1, pressure gradient = 0.00866883
smoothSolver:  Solving for omega, Initial residual = 6.5271e-06, Final residual = 6.5271e-06, No Iterations 0
smoothSolver:  Solving for k, Initial residual = 1.97978e-05, Final residual = 6.58625e-06, No Iterations 2
ExecutionTime = 2.07314 s  ClockTime = 2 s

Time = 1019s

smoothSolver:  Solving for Ux, Initial residual = 2.11931e-05, Final residual = 8.57707e-06, No Iterations 2
smoothSolver:  Solving for Uy, Initial residual = 0.0159978, Final residual = 0.000948915, No Iterations 3
Pressure gradient source: uncorrected Ubar = 1, pressure gradient = 0.00866816
GAMG:  Solving for p, Initial residual = 0.00601543, Final residual = 0.000601522, No Iterations 6
time step continuity errors : sum local = 8.11028e-09, global = -2.5978e-18, cumulative = 2.67112e-16
Pressure gradient source: uncorrected Ubar = 1, pressure gradient = 0.00866858
smoothSolver:  Solving for omega, Initial residual = 6.52624e-06, Final residual = 6.52624e-06, No Iterations 0
smoothSolver:  Solving for k, Initial residual = 1.93002e-05, Final residual = 6.16455e-06, No Iterations 2
ExecutionTime = 2.07508 s  ClockTime = 2 s

Time = 1020s

smoothSolver:  Solving for Ux, Initial residual = 2.08244e-05, Final residual = 8.4307e-06, No Iterations 2
smoothSolver:  Solving for Uy, Initial residual = 0.0186346, Final residual = 0.00116459, No Iterations 3
Pressure gradient source: uncorrected Ubar = 1, pressure gradient = 0.008668
GAMG:  Solving for p, Initial residual = 0.0063893, Final residual = 0.000420695, No Iterations 7
time step continuity errors : sum local = 5.44418e-09, global = 5.21797e-18, cumulative = 2.7233e-16
Pressure gradient source: uncorrected Ubar = 1, pressure gradient = 0.00866835
smoothSolver:  Solving for omega, Initial residual = 6.52542e-06, Final residual = 6.52542e-06, No Iterations 0
smoothSolver:  Solving for k, Initial residual = 1.90962e-05, Final residual = 6.25464e-06, No Iterations 2
ExecutionTime = 2.07704 s  ClockTime = 2 s

Time = 1021s

smoothSolver:  Solving for Ux, Initial residual = 2.04547e-05, Final residual = 8.28378e-06, No Iterations 2
smoothSolver:  Solving for Uy, Initial residual = 0.0221938, Final residual = 0.00133836, No Iterations 3
Pressure gradient source: uncorrected Ubar = 1, pressure gradient = 0.00866782
GAMG:  Solving for p, Initial residual = 0.00666045, Final residual = 0.000600455, No Iterations 6
time step continuity errors : sum local = 7.91742e-09, global = -8.26691e-19, cumulative = 2.71503e-16
Pressure gradient source: uncorrected Ubar = 1, pressure gradient = 0.00866813
smoothSolver:  Solving for omega, Initial residual = 6.5246e-06, Final residual = 6.5246e-06, No Iterations 0
smoothSolver:  Solving for k, Initial residual = 1.89427e-05, Final residual = 6.21503e-06, No Iterations 2
ExecutionTime = 2.07905 s  ClockTime = 2 s

Time = 1022s

smoothSolver:  Solving for Ux, Initial residual = 2.00848e-05, Final residual = 8.13614e-06, No Iterations 2
smoothSolver:  Solving for Uy, Initial residual = 0.0225555, Final residual = 0.00144543, No Iterations 3
Pressure gradient source: uncorrected Ubar = 1, pressure gradient = 0.00866765
GAMG:  Solving for p, Initial residual = 0.00679815, Final residual = 0.000543394, No Iterations 6
time step continuity errors : sum local = 7.34693e-09, global = 2.85331e-18, cumulative = 2.74357e-16
Pressure gradient source: uncorrected Ubar = 1, pressure gradient = 0.00866792
smoothSolver:  Solving for omega, Initial residual = 6.5238e-06, Final residual = 6.5238e-06, No Iterations 0
smoothSolver:  Solving for k, Initial residual = 1.88083e-05, Final residual = 5.96267e-06, No Iterations 2
ExecutionTime = 2.08119 s  ClockTime = 2 s

Time = 1023s

smoothSolver:  Solving for Ux, Initial residual = 1.97154e-05, Final residual = 7.98854e-06, No Iterations 2
smoothSolver:  Solving for Uy, Initial residual = 0.0250954, Final residual = 0.00158854, No Iterations 3
Pressure gradient source: uncorrected Ubar = 1, pressure gradient = 0.0086675
GAMG:  Solving for p, Initial residual = 0.00696773, Final residual = 0.00056243, No Iterations 6
time step continuity errors : sum local = 7.72511e-09, global = 4.64715e-18, cumulative = 2.79004e-16
Pressure gradient source: uncorrected Ubar = 1, pressure gradient = 0.00866772
smoothSolver:  Solving for omega, Initial residual = 6.52301e-06, Final residual = 6.52301e-06, No Iterations 0
smoothSolver:  Solving for k, Initial residual = 1.87363e-05, Final residual = 5.98186e-06, No Iterations 2
ExecutionTime = 2.08356 s  ClockTime = 2 s

Time = 1024s

smoothSolver:  Solving for Ux, Initial residual = 1.93469e-05, Final residual = 7.84117e-06, No Iterations 2
smoothSolver:  Solving for Uy, Initial residual = 0.0241928, Final residual = 0.00164129, No Iterations 3
Pressure gradient source: uncorrected Ubar = 1, pressure gradient = 0.00866734
GAMG:  Solving for p, Initial residual = 0.00725291, Final residual = 0.000713366, No Iterations 6
time step continuity errors : sum local = 9.21552e-09, global = -1.88077e-18, cumulative = 2.77123e-16
Pressure gradient source: uncorrected Ubar = 1, pressure gradient = 0.00866752
smoothSolver:  Solving for omega, Initial residual = 6.52224e-06, Final residual = 6.52224e-06, No Iterations 0
smoothSolver:  Solving for k, Initial residual = 1.87967e-05, Final residual = 6.22287e-06, No Iterations 2
ExecutionTime = 2.08563 s  ClockTime = 2 s

Time = 1025s

smoothSolver:  Solving for Ux, Initial residual = 1.89794e-05, Final residual = 7.69329e-06, No Iterations 2
smoothSolver:  Solving for Uy, Initial residual = 0.0270115, Final residual = 0.00169351, No Iterations 3
Pressure gradient source: uncorrected Ubar = 1, pressure gradient = 0.0086672
GAMG:  Solving for p, Initial residual = 0.0073875, Final residual = 0.000558598, No Iterations 6
time step continuity errors : sum local = 7.41472e-09, global = -1.01137e-17, cumulative = 2.67009e-16
Pressure gradient source: uncorrected Ubar = 1, pressure gradient = 0.00866734
smoothSolver:  Solving for omega, Initial residual = 6.52149e-06, Final residual = 6.52149e-06, No Iterations 0
smoothSolver:  Solving for k, Initial residual = 1.88701e-05, Final residual = 6.13794e-06, No Iterations 2
ExecutionTime = 2.08762 s  ClockTime = 2 s

Time = 1026s

smoothSolver:  Solving for Ux, Initial residual = 1.86108e-05, Final residual = 7.5449e-06, No Iterations 2
smoothSolver:  Solving for Uy, Initial residual = 0.0260686, Final residual = 0.00176574, No Iterations 3
Pressure gradient source: uncorrected Ubar = 1, pressure gradient = 0.00866706
GAMG:  Solving for p, Initial residual = 0.00720098, Final residual = 0.000585844, No Iterations 6
time step continuity errors : sum local = 7.6968e-09, global = 1.14406e-18, cumulative = 2.68153e-16
Pressure gradient source: uncorrected Ubar = 1, pressure gradient = 0.00866717
smoothSolver:  Solving for omega, Initial residual = 6.52074e-06, Final residual = 6.52074e-06, No Iterations 0
smoothSolver:  Solving for k, Initial residual = 1.8857e-05, Final residual = 5.775e-06, No Iterations 2
ExecutionTime = 2.08957 s  ClockTime = 2 s

Time = 1027s

smoothSolver:  Solving for Ux, Initial residual = 1.82434e-05, Final residual = 7.39769e-06, No Iterations 2
smoothSolver:  Solving for Uy, Initial residual = 0.0280517, Final residual = 0.00183062, No Iterations 3
Pressure gradient source: uncorrected Ubar = 1, pressure gradient = 0.00866693
GAMG:  Solving for p, Initial residual = 0.00726092, Final residual = 0.000555967, No Iterations 6
time step continuity errors : sum local = 7.2617e-09, global = -3.8074e-18, cumulative = 2.64346e-16
Pressure gradient source: uncorrected Ubar = 1, pressure gradient = 0.008667
smoothSolver:  Solving for omega, Initial residual = 6.52002e-06, Final residual = 6.52002e-06, No Iterations 0
smoothSolver:  Solving for k, Initial residual = 1.90495e-05, Final residual = 6.12956e-06, No Iterations 2
ExecutionTime = 2.09154 s  ClockTime = 2 s

Time = 1028s

smoothSolver:  Solving for Ux, Initial residual = 1.78753e-05, Final residual = 7.24907e-06, No Iterations 2
smoothSolver:  Solving for Uy, Initial residual = 0.0268946, Final residual = 0.00179698, No Iterations 3
Pressure gradient source: uncorrected Ubar = 1, pressure gradient = 0.0086668
GAMG:  Solving for p, Initial residual = 0.006818, Final residual = 0.000534347, No Iterations 6
time step continuity errors : sum local = 6.93251e-09, global = -1.81711e-18, cumulative = 2.62529e-16
Pressure gradient source: uncorrected Ubar = 1, pressure gradient = 0.00866685
smoothSolver:  Solving for omega, Initial residual = 6.51931e-06, Final residual = 6.51931e-06, No Iterations 0
smoothSolver:  Solving for k, Initial residual = 1.92306e-05, Final residual = 6.43261e-06, No Iterations 2
ExecutionTime = 2.09347 s  ClockTime = 2 s

Time = 1029s

smoothSolver:  Solving for Ux, Initial residual = 1.75098e-05, Final residual = 7.10125e-06, No Iterations 2
smoothSolver:  Solving for Uy, Initial residual = 0.0309583, Final residual = 0.00191572, No Iterations 3
Pressure gradient source: uncorrected Ubar = 1, pressure gradient = 0.0086667
GAMG:  Solving for p, Initial residual = 0.00790661, Final residual = 0.000482978, No Iterations 6
time step continuity errors : sum local = 6.27815e-09, global = -5.93174e-19, cumulative = 2.61936e-16
Pressure gradient source: uncorrected Ubar = 1, pressure gradient = 0.00866671
smoothSolver:  Solving for omega, Initial residual = 6.51861e-06, Final residual = 6.51861e-06, No Iterations 0
smoothSolver:  Solving for k, Initial residual = 1.9148e-05, Final residual = 5.76122e-06, No Iterations 2
ExecutionTime = 2.09548 s  ClockTime = 2 s

Time = 1030s

smoothSolver:  Solving for Ux, Initial residual = 1.71413e-05, Final residual = 6.95415e-06, No Iterations 2
smoothSolver:  Solving for Uy, Initial residual = 0.025375, Final residual = 0.00176993, No Iterations 3
Pressure gradient source: uncorrected Ubar = 1, pressure gradient = 0.00866656
GAMG:  Solving for p, Initial residual = 0.00670143, Final residual = 0.000648776, No Iterations 6
time step continuity errors : sum local = 7.9862e-09, global = 2.22603e-18, cumulative = 2.64162e-16
Pressure gradient source: uncorrected Ubar = 1, pressure gradient = 0.00866656
smoothSolver:  Solving for omega, Initial residual = 6.51793e-06, Final residual = 6.51793e-06, No Iterations 0
smoothSolver:  Solving for k, Initial residual = 1.9268e-05, Final residual = 5.64012e-06, No Iterations 2
ExecutionTime = 2.09755 s  ClockTime = 2 s

Time = 1031s

smoothSolver:  Solving for Ux, Initial residual = 1.67838e-05, Final residual = 6.80939e-06, No Iterations 2
smoothSolver:  Solving for Uy, Initial residual = 0.0323032, Final residual = 0.00201842, No Iterations 3
Pressure gradient source: uncorrected Ubar = 1, pressure gradient = 0.00866645
GAMG:  Solving for p, Initial residual = 0.00781622, Final residual = 0.000468929, No Iterations 6
time step continuity errors : sum local = 6.04127e-09, global = 1.80212e-18, cumulative = 2.65964e-16
Pressure gradient source: uncorrected Ubar = 1, pressure gradient = 0.00866643
smoothSolver:  Solving for omega, Initial residual = 6.51726e-06, Final residual = 6.51726e-06, No Iterations 0
smoothSolver:  Solving for k, Initial residual = 1.93906e-05, Final residual = 6.49066e-06, No Iterations 2
ExecutionTime = 2.09997 s  ClockTime = 2 s

Time = 1032s

smoothSolver:  Solving for Ux, Initial residual = 1.64179e-05, Final residual = 6.66182e-06, No Iterations 2
smoothSolver:  Solving for Uy, Initial residual = 0.030005, Final residual = 0.00196281, No Iterations 3
Pressure gradient source: uncorrected Ubar = 1, pressure gradient = 0.00866639
GAMG:  Solving for p, Initial residual = 0.00738361, Final residual = 0.000514535, No Iterations 6
time step continuity errors : sum local = 6.53515e-09, global = 1.8006e-18, cumulative = 2.67764e-16
Pressure gradient source: uncorrected Ubar = 1, pressure gradient = 0.00866631
smoothSolver:  Solving for omega, Initial residual = 6.5166e-06, Final residual = 6.5166e-06, No Iterations 0
smoothSolver:  Solving for k, Initial residual = 1.9689e-05, Final residual = 6.17239e-06, No Iterations 2
ExecutionTime = 2.10204 s  ClockTime = 2 s

Time = 1033s

smoothSolver:  Solving for Ux, Initial residual = 1.60589e-05, Final residual = 9.9979e-06, No Iterations 1
smoothSolver:  Solving for Uy, Initial residual = 0.0294581, Final residual = 0.00188102, No Iterations 3
Pressure gradient source: uncorrected Ubar = 1, pressure gradient = 0.00866437
GAMG:  Solving for p, Initial residual = 0.0106126, Final residual = 0.00104772, No Iterations 5
time step continuity errors : sum local = 1.31301e-08, global = -4.35353e-18, cumulative = 2.63411e-16
Pressure gradient source: uncorrected Ubar = 1, pressure gradient = 0.00866497
smoothSolver:  Solving for omega, Initial residual = 6.51618e-06, Final residual = 6.51618e-06, No Iterations 0
smoothSolver:  Solving for k, Initial residual = 1.94804e-05, Final residual = 5.74644e-06, No Iterations 2
ExecutionTime = 2.10404 s  ClockTime = 2 s

Time = 1034s

smoothSolver:  Solving for Ux, Initial residual = 1.57913e-05, Final residual = 9.8689e-06, No Iterations 1
smoothSolver:  Solving for Uy, Initial residual = 0.0471079, Final residual = 0.00265727, No Iterations 3
Pressure gradient source: uncorrected Ubar = 1, pressure gradient = 0.00866619
GAMG:  Solving for p, Initial residual = 0.0124884, Final residual = 0.00107753, No Iterations 5
time step continuity errors : sum local = 1.36663e-08, global = -1.00581e-18, cumulative = 2.62405e-16
Pressure gradient source: uncorrected Ubar = 1, pressure gradient = 0.00866468
smoothSolver:  Solving for omega, Initial residual = 6.51575e-06, Final residual = 6.51575e-06, No Iterations 0
smoothSolver:  Solving for k, Initial residual = 1.95527e-05, Final residual = 5.91709e-06, No Iterations 2
ExecutionTime = 2.10599 s  ClockTime = 2 s

Time = 1035s

smoothSolver:  Solving for Ux, Initial residual = 1.55251e-05, Final residual = 9.72411e-06, No Iterations 1
smoothSolver:  Solving for Uy, Initial residual = 0.0606399, Final residual = 0.00319072, No Iterations 3
Pressure gradient source: uncorrected Ubar = 1, pressure gradient = 0.00866618
GAMG:  Solving for p, Initial residual = 0.0109921, Final residual = 0.000968045, No Iterations 6
time step continuity errors : sum local = 1.179e-08, global = 2.03844e-18, cumulative = 2.64443e-16
Pressure gradient source: uncorrected Ubar = 1, pressure gradient = 0.0086645
smoothSolver:  Solving for omega, Initial residual = 6.51534e-06, Final residual = 6.51534e-06, No Iterations 0
smoothSolver:  Solving for k, Initial residual = 1.949e-05, Final residual = 6.30047e-06, No Iterations 2
ExecutionTime = 2.10792 s  ClockTime = 2 s

Time = 1036s

smoothSolver:  Solving for Ux, Initial residual = 1.5267e-05, Final residual = 9.57459e-06, No Iterations 1
smoothSolver:  Solving for Uy, Initial residual = 0.0500832, Final residual = 0.00249723, No Iterations 3
Pressure gradient source: uncorrected Ubar = 1, pressure gradient = 0.00866612
GAMG:  Solving for p, Initial residual = 0.00888515, Final residual = 0.000361517, No Iterations 4
time step continuity errors : sum local = 4.34762e-09, global = -7.8716e-18, cumulative = 2.56572e-16
Pressure gradient source: uncorrected Ubar = 1, pressure gradient = 0.00866437
smoothSolver:  Solving for omega, Initial residual = 6.51493e-06, Final residual = 6.51493e-06, No Iterations 0
smoothSolver:  Solving for k, Initial residual = 1.96013e-05, Final residual = 6.35564e-06, No Iterations 2
ExecutionTime = 2.1098 s  ClockTime = 2 s

Time = 1037s

smoothSolver:  Solving for Ux, Initial residual = 1.50118e-05, Final residual = 9.42444e-06, No Iterations 1
smoothSolver:  Solving for Uy, Initial residual = 0.0348746, Final residual = 0.00181189, No Iterations 3
Pressure gradient source: uncorrected Ubar = 1, pressure gradient = 0.00866605
GAMG:  Solving for p, Initial residual = 0.00676627, Final residual = 0.000548327, No Iterations 4
time step continuity errors : sum local = 6.41043e-09, global = 5.71799e-18, cumulative = 2.6229e-16
Pressure gradient source: uncorrected Ubar = 1, pressure gradient = 0.00866427
smoothSolver:  Solving for omega, Initial residual = 6.51454e-06, Final residual = 6.51454e-06, No Iterations 0
smoothSolver:  Solving for k, Initial residual = 1.93873e-05, Final residual = 5.66739e-06, No Iterations 2
ExecutionTime = 2.11177 s  ClockTime = 2 s

Time = 1038s

smoothSolver:  Solving for Ux, Initial residual = 1.47574e-05, Final residual = 9.27456e-06, No Iterations 1
smoothSolver:  Solving for Uy, Initial residual = 0.0233598, Final residual = 0.00110427, No Iterations 3
Pressure gradient source: uncorrected Ubar = 1, pressure gradient = 0.00866597
GAMG:  Solving for p, Initial residual = 0.00707027, Final residual = 0.000522692, No Iterations 4
time step continuity errors : sum local = 6.75633e-09, global = -2.14902e-18, cumulative = 2.60141e-16
Pressure gradient source: uncorrected Ubar = 1, pressure gradient = 0.00866418
smoothSolver:  Solving for omega, Initial residual = 6.51416e-06, Final residual = 6.51416e-06, No Iterations 0
smoothSolver:  Solving for k, Initial residual = 1.96586e-05, Final residual = 6.51054e-06, No Iterations 2
ExecutionTime = 2.11372 s  ClockTime = 2 s

Time = 1039s

smoothSolver:  Solving for Ux, Initial residual = 1.44981e-05, Final residual = 9.12079e-06, No Iterations 1
smoothSolver:  Solving for Uy, Initial residual = 0.0102259, Final residual = 0.000411012, No Iterations 3
Pressure gradient source: uncorrected Ubar = 1, pressure gradient = 0.00866594
GAMG:  Solving for p, Initial residual = 0.00625898, Final residual = 0.000337287, No Iterations 5
time step continuity errors : sum local = 4.07617e-09, global = 3.8125e-18, cumulative = 2.63953e-16
Pressure gradient source: uncorrected Ubar = 1, pressure gradient = 0.00866412
smoothSolver:  Solving for omega, Initial residual = 6.51373e-06, Final residual = 6.51373e-06, No Iterations 0
smoothSolver:  Solving for k, Initial residual = 1.94383e-05, Final residual = 5.66177e-06, No Iterations 2
ExecutionTime = 2.11619 s  ClockTime = 2 s

Time = 1040s

smoothSolver:  Solving for Ux, Initial residual = 1.42459e-05, Final residual = 8.97004e-06, No Iterations 1
smoothSolver:  Solving for Uy, Initial residual = 0.00869649, Final residual = 0.000427488, No Iterations 3
Pressure gradient source: uncorrected Ubar = 1, pressure gradient = 0.00866586
GAMG:  Solving for p, Initial residual = 0.00678686, Final residual = 0.000475476, No Iterations 3
time step continuity errors : sum local = 5.57056e-09, global = 5.67842e-18, cumulative = 2.69632e-16
Pressure gradient source: uncorrected Ubar = 1, pressure gradient = 0.00866405
smoothSolver:  Solving for omega, Initial residual = 6.51334e-06, Final residual = 6.51334e-06, No Iterations 0
smoothSolver:  Solving for k, Initial residual = 1.97439e-05, Final residual = 6.03909e-06, No Iterations 2
ExecutionTime = 2.11819 s  ClockTime = 2 s


SIMPLE solution converged in 1040 iterations

End

