/*---------------------------------------------------------------------------*\
  =========                 |
  \\      /  F ield         | OpenFOAM: The Open Source CFD Toolbox
   \\    /   O peration     | Website:  https://openfoam.org
    \\  /    A nd           | Version:  10
     \\/     M anipulation  |
\*---------------------------------------------------------------------------*/
Build  : 10-e450dce21ea5
Exec   : blockMesh
Date   : Feb 20 2023
Time   : 14:13:13
Host   : "w530-R9YK46P"
PID    : 18711
I/O    : uncollated
Case   : /home/jdmezazeron/gitDanielMezaZ/turbulenceVisualized/Data/SimulationFiles/K24_Re1512
nProcs : 1
sigFpe : Enabling floating point exception trapping (FOAM_SIGFPE).
fileModificationChecking : Monitoring run-time modified files using timeStampMaster (fileModificationSkew 10)
allowSystemOperations : Allowing user-supplied system call operations

// * * * * * * * * * * * * * * * * * * * * * * * * * * * * * * * * * * * * * //
Create time

Deleting polyMesh directory
    "/home/jdmezazeron/gitDanielMezaZ/turbulenceVisualized/Data/SimulationFiles/K24_Re1512/constant/polyMesh"
Reading "blockMeshDict"

Creating block mesh from
    "system/blockMeshDict"
Creating block edges
No non-planar block faces defined
Creating topology blocks
Creating topology patches

Creating block mesh topology

Check topology

	Basic statistics
		Number of internal faces : 0
		Number of boundary faces : 6
		Number of defined boundary faces : 6
		Number of undefined boundary faces : 0
	Checking patch -> block consistency

Creating block offsets
Creating merge list .

Creating polyMesh from blockMesh
Creating patches
Creating cells
Creating points with scale 1
    Block 0 cell size :
        i : 0.5
        j : 0.00461374 .. 0.018455
        k : 2

Detected cyclic patches; ordering boundary faces

Writing polyMesh
----------------
Mesh Information
----------------
  boundingBox: (-1 0 -1) (1 1 1)
  nPoints: 1010
  nCells: 400
  nFaces: 1704
  nInternalFaces: 696
----------------
Patches
----------------
  patch 0 (start: 696 size: 100) name: inlet
  patch 1 (start: 796 size: 100) name: outlet
  patch 2 (start: 896 size: 4) name: fixedWalls-bottom
  patch 3 (start: 900 size: 4) name: fixedWalls-top
  patch 4 (start: 904 size: 800) name: frontAndBack

End

/*---------------------------------------------------------------------------*\
  =========                 |
  \\      /  F ield         | OpenFOAM: The Open Source CFD Toolbox
   \\    /   O peration     | Website:  https://openfoam.org
    \\  /    A nd           | Version:  10
     \\/     M anipulation  |
\*---------------------------------------------------------------------------*/
Build  : 10-e450dce21ea5
Exec   : simpleFoam
Date   : Feb 20 2023
Time   : 14:13:13
Host   : "w530-R9YK46P"
PID    : 18712
I/O    : uncollated
Case   : /home/jdmezazeron/gitDanielMezaZ/turbulenceVisualized/Data/SimulationFiles/K24_Re1512
nProcs : 1
sigFpe : Enabling floating point exception trapping (FOAM_SIGFPE).
fileModificationChecking : Monitoring run-time modified files using timeStampMaster (fileModificationSkew 10)
allowSystemOperations : Allowing user-supplied system call operations

// * * * * * * * * * * * * * * * * * * * * * * * * * * * * * * * * * * * * * //
Create time

Create mesh for time = 0


SIMPLE: Convergence criteria found
        U: tolerance 0.0001
        p: tolerance 0.01
        omega: tolerance 0.0001

Reading field p

Reading field U

Reading/calculating face flux field phi

Selecting viscosity model Newtonian
Selecting turbulence model type RAS
Selecting RAS turbulence model kOmegaSST
Selecting patchDistMethod meshWave
RAS
{
    RASModel        kOmegaSST;
    turbulence      on;
    printCoeffs     on;
    alphaK1         0.85;
    alphaK2         1;
    alphaOmega1     0.5;
    alphaOmega2     0.856;
    gamma1          0.555556;
    gamma2          0.44;
    beta1           0.075;
    beta2           0.0828;
    betaStar        0.09;
    a1              0.31;
    b1              1;
    c1              10;
    F3              false;
}

No MRF models present

--> FOAM Warning : Creating fvModels from "system/fvOptions" rather than constant/fvModels
No fvModels present
--> FOAM Warning : Creating fvConstraints from "system/fvOptions"

Selecting finite volume constraint type meanVelocityForce
    Name: momentumSource
    - selecting all cells
    - selected 400 cell(s) with volume 4
    Initial pressure gradient = 0


Starting time loop

turbulenceFields stressComponents: storing fields:
    R

Time = 1s

smoothSolver:  Solving for Ux, Initial residual = 0, Final residual = 0, No Iterations 0
smoothSolver:  Solving for Uy, Initial residual = 0, Final residual = 0, No Iterations 0
Pressure gradient source: uncorrected Ubar = 0, pressure gradient = 1313.43
GAMG:  Solving for p, Initial residual = 0.999996, Final residual = 0.0985401, No Iterations 2
time step continuity errors : sum local = 9.56494e-17, global = -6.72116e-19, cumulative = -6.72116e-19
Pressure gradient source: uncorrected Ubar = 0.884652, pressure gradient = 151.501
smoothSolver:  Solving for omega, Initial residual = 0.198496, Final residual = 0.0119935, No Iterations 3
smoothSolver:  Solving for k, Initial residual = 1, Final residual = 0.068831, No Iterations 2
ExecutionTime = 0.014318 s  ClockTime = 0 s

Time = 2s

smoothSolver:  Solving for Ux, Initial residual = 0.988624, Final residual = 0.0900031, No Iterations 6
smoothSolver:  Solving for Uy, Initial residual = 1, Final residual = 0.0987269, No Iterations 5
Pressure gradient source: uncorrected Ubar = 38.1793, pressure gradient = -1129.57
GAMG:  Solving for p, Initial residual = 1, Final residual = 0.0896239, No Iterations 8
time step continuity errors : sum local = 0.0289348, global = -5.04899e-17, cumulative = -5.11621e-17
Pressure gradient source: uncorrected Ubar = 5.78011, pressure gradient = -13.2048
smoothSolver:  Solving for omega, Initial residual = 0.195327, Final residual = 0.000953523, No Iterations 1
smoothSolver:  Solving for k, Initial residual = 0.9761, Final residual = 0.0248524, No Iterations 1
ExecutionTime = 0.017095 s  ClockTime = 0 s

Time = 3s

smoothSolver:  Solving for Ux, Initial residual = 0.476485, Final residual = 0.0399896, No Iterations 6
smoothSolver:  Solving for Uy, Initial residual = 0.522268, Final residual = 0.0474141, No Iterations 2
Pressure gradient source: uncorrected Ubar = -1.19081, pressure gradient = 98.9779
GAMG:  Solving for p, Initial residual = 0.208295, Final residual = 0.0151629, No Iterations 4
time step continuity errors : sum local = 0.00927289, global = 2.97613e-17, cumulative = -2.14007e-17
Pressure gradient source: uncorrected Ubar = 0.728353, pressure gradient = 0.705108
smoothSolver:  Solving for omega, Initial residual = 0.00945596, Final residual = 0.000247587, No Iterations 1
smoothSolver:  Solving for k, Initial residual = 0.379278, Final residual = 0.0205375, No Iterations 2
ExecutionTime = 0.019578 s  ClockTime = 0 s

Time = 4s

smoothSolver:  Solving for Ux, Initial residual = 0.0900458, Final residual = 0.00731725, No Iterations 4
smoothSolver:  Solving for Uy, Initial residual = 0.263723, Final residual = 0.0175617, No Iterations 3
Pressure gradient source: uncorrected Ubar = 1.01867, pressure gradient = 0.00109364
GAMG:  Solving for p, Initial residual = 0.132598, Final residual = 0.0114132, No Iterations 9
time step continuity errors : sum local = 0.0108385, global = -4.85316e-17, cumulative = -6.99323e-17
Pressure gradient source: uncorrected Ubar = 1.00204, pressure gradient = 0.62814
smoothSolver:  Solving for omega, Initial residual = 0.00795765, Final residual = 0.000212858, No Iterations 1
smoothSolver:  Solving for k, Initial residual = 0.426899, Final residual = 0.0205791, No Iterations 3
ExecutionTime = 0.0223 s  ClockTime = 0 s

Time = 5s

smoothSolver:  Solving for Ux, Initial residual = 0.0723929, Final residual = 0.00662914, No Iterations 4
smoothSolver:  Solving for Uy, Initial residual = 0.38266, Final residual = 0.0179047, No Iterations 3
Pressure gradient source: uncorrected Ubar = 0.982757, pressure gradient = 1.35678
GAMG:  Solving for p, Initial residual = 0.150597, Final residual = 0.0141914, No Iterations 10
time step continuity errors : sum local = 0.012261, global = -1.91904e-17, cumulative = -8.91227e-17
Pressure gradient source: uncorrected Ubar = 0.996691, pressure gradient = 0.767982
smoothSolver:  Solving for omega, Initial residual = 0.00393081, Final residual = 0.000359483, No Iterations 1
smoothSolver:  Solving for k, Initial residual = 0.654559, Final residual = 0.0457045, No Iterations 2
ExecutionTime = 0.024999 s  ClockTime = 0 s

Time = 6s

smoothSolver:  Solving for Ux, Initial residual = 0.0614642, Final residual = 0.00518917, No Iterations 4
smoothSolver:  Solving for Uy, Initial residual = 0.686599, Final residual = 0.0378622, No Iterations 3
Pressure gradient source: uncorrected Ubar = 0.951459, pressure gradient = 3.09731
GAMG:  Solving for p, Initial residual = 0.230793, Final residual = 0.0218312, No Iterations 7
time step continuity errors : sum local = 0.0143213, global = 4.85655e-17, cumulative = -4.05572e-17
Pressure gradient source: uncorrected Ubar = 0.992584, pressure gradient = 1.12383
smoothSolver:  Solving for omega, Initial residual = 0.00382439, Final residual = 0.000258743, No Iterations 2
smoothSolver:  Solving for k, Initial residual = 0.442319, Final residual = 0.0337112, No Iterations 2
ExecutionTime = 0.027598 s  ClockTime = 0 s

Time = 7s

smoothSolver:  Solving for Ux, Initial residual = 0.0470123, Final residual = 0.00420357, No Iterations 4
smoothSolver:  Solving for Uy, Initial residual = 0.415821, Final residual = 0.0190591, No Iterations 3
Pressure gradient source: uncorrected Ubar = 0.964391, pressure gradient = 2.95266
GAMG:  Solving for p, Initial residual = 0.167542, Final residual = 0.0121496, No Iterations 7
time step continuity errors : sum local = 0.00710945, global = -1.96232e-17, cumulative = -6.01804e-17
Pressure gradient source: uncorrected Ubar = 0.995151, pressure gradient = 1.37289
smoothSolver:  Solving for omega, Initial residual = 0.00319671, Final residual = 0.000153557, No Iterations 2
smoothSolver:  Solving for k, Initial residual = 0.198912, Final residual = 0.00824631, No Iterations 3
ExecutionTime = 0.030285 s  ClockTime = 0 s

Time = 8s

smoothSolver:  Solving for Ux, Initial residual = 0.0444238, Final residual = 0.00414576, No Iterations 4
smoothSolver:  Solving for Uy, Initial residual = 0.290665, Final residual = 0.0134281, No Iterations 3
Pressure gradient source: uncorrected Ubar = 1.0097, pressure gradient = 0.82234
GAMG:  Solving for p, Initial residual = 0.181872, Final residual = 0.0152376, No Iterations 8
time step continuity errors : sum local = 0.00654084, global = 7.22079e-17, cumulative = 1.20274e-17
Pressure gradient source: uncorrected Ubar = 1.0012, pressure gradient = 1.30469
smoothSolver:  Solving for omega, Initial residual = 0.00165352, Final residual = 0.000130256, No Iterations 2
smoothSolver:  Solving for k, Initial residual = 0.133409, Final residual = 0.00893547, No Iterations 3
ExecutionTime = 0.033012 s  ClockTime = 0 s

Time = 9s

smoothSolver:  Solving for Ux, Initial residual = 0.0359638, Final residual = 0.00342367, No Iterations 4
smoothSolver:  Solving for Uy, Initial residual = 0.258733, Final residual = 0.0189906, No Iterations 3
Pressure gradient source: uncorrected Ubar = 0.983731, pressure gradient = 2.35563
GAMG:  Solving for p, Initial residual = 0.172747, Final residual = 0.0169932, No Iterations 8
time step continuity errors : sum local = 0.00566592, global = -2.00306e-17, cumulative = -8.00319e-18
Pressure gradient source: uncorrected Ubar = 0.997759, pressure gradient = 1.44944
smoothSolver:  Solving for omega, Initial residual = 0.0011114, Final residual = 7.05025e-05, No Iterations 3
smoothSolver:  Solving for k, Initial residual = 0.111701, Final residual = 0.0111391, No Iterations 3
ExecutionTime = 0.035707 s  ClockTime = 0 s

Time = 10s

smoothSolver:  Solving for Ux, Initial residual = 0.029884, Final residual = 0.0028938, No Iterations 4
smoothSolver:  Solving for Uy, Initial residual = 0.28375, Final residual = 0.0196697, No Iterations 3
Pressure gradient source: uncorrected Ubar = 0.982403, pressure gradient = 2.78009
GAMG:  Solving for p, Initial residual = 0.202026, Final residual = 0.0131953, No Iterations 9
time step continuity errors : sum local = 0.00488976, global = 3.84896e-17, cumulative = 3.04864e-17
Pressure gradient source: uncorrected Ubar = 0.997509, pressure gradient = 1.63785
smoothSolver:  Solving for omega, Initial residual = 0.000897968, Final residual = 7.6765e-05, No Iterations 3
smoothSolver:  Solving for k, Initial residual = 0.0909392, Final residual = 0.00650792, No Iterations 4
ExecutionTime = 0.038471 s  ClockTime = 0 s

Time = 11s

smoothSolver:  Solving for Ux, Initial residual = 0.025775, Final residual = 0.00254883, No Iterations 4
smoothSolver:  Solving for Uy, Initial residual = 0.21442, Final residual = 0.0175492, No Iterations 3
Pressure gradient source: uncorrected Ubar = 0.992812, pressure gradient = 2.26107
GAMG:  Solving for p, Initial residual = 0.22353, Final residual = 0.013403, No Iterations 9
time step continuity errors : sum local = 0.00478269, global = 2.1683e-18, cumulative = 3.26547e-17
Pressure gradient source: uncorrected Ubar = 0.998927, pressure gradient = 1.7309
smoothSolver:  Solving for omega, Initial residual = 0.000760732, Final residual = 4.61385e-05, No Iterations 4
smoothSolver:  Solving for k, Initial residual = 0.0762455, Final residual = 0.00702086, No Iterations 4
ExecutionTime = 0.041194 s  ClockTime = 0 s

Time = 12s

smoothSolver:  Solving for Ux, Initial residual = 0.0226356, Final residual = 0.00146563, No Iterations 5
smoothSolver:  Solving for Uy, Initial residual = 0.215016, Final residual = 0.0172115, No Iterations 3
Pressure gradient source: uncorrected Ubar = 0.995648, pressure gradient = 2.15415
GAMG:  Solving for p, Initial residual = 0.217894, Final residual = 0.0157081, No Iterations 9
time step continuity errors : sum local = 0.00461427, global = 1.0327e-17, cumulative = 4.29817e-17
Pressure gradient source: uncorrected Ubar = 0.999352, pressure gradient = 1.79394
smoothSolver:  Solving for omega, Initial residual = 0.000658716, Final residual = 5.05836e-05, No Iterations 4
smoothSolver:  Solving for k, Initial residual = 0.0634599, Final residual = 0.00401432, No Iterations 5
ExecutionTime = 0.043977 s  ClockTime = 0 s

Time = 13s

smoothSolver:  Solving for Ux, Initial residual = 0.020337, Final residual = 0.00133394, No Iterations 5
smoothSolver:  Solving for Uy, Initial residual = 0.238959, Final residual = 0.0204063, No Iterations 3
Pressure gradient source: uncorrected Ubar = 0.998219, pressure gradient = 1.9871
GAMG:  Solving for p, Initial residual = 0.158188, Final residual = 0.0125573, No Iterations 10
time step continuity errors : sum local = 0.00372538, global = 7.77767e-17, cumulative = 1.20758e-16
Pressure gradient source: uncorrected Ubar = 0.999693, pressure gradient = 1.82719
smoothSolver:  Solving for omega, Initial residual = 0.000609412, Final residual = 5.30454e-05, No Iterations 4
smoothSolver:  Solving for k, Initial residual = 0.0525812, Final residual = 0.0036532, No Iterations 5
ExecutionTime = 0.046791 s  ClockTime = 0 s

Time = 14s

smoothSolver:  Solving for Ux, Initial residual = 0.0184969, Final residual = 0.00123416, No Iterations 5
smoothSolver:  Solving for Uy, Initial residual = 0.207768, Final residual = 0.0118435, No Iterations 4
Pressure gradient source: uncorrected Ubar = 1.0002, pressure gradient = 1.80288
GAMG:  Solving for p, Initial residual = 0.116676, Final residual = 0.0107938, No Iterations 10
time step continuity errors : sum local = 0.00387394, global = -2.11424e-17, cumulative = 9.96161e-17
Pressure gradient source: uncorrected Ubar = 0.999956, pressure gradient = 1.83247
smoothSolver:  Solving for omega, Initial residual = 0.000558653, Final residual = 5.3111e-05, No Iterations 4
smoothSolver:  Solving for k, Initial residual = 0.0451503, Final residual = 0.00354095, No Iterations 5
ExecutionTime = 0.04965 s  ClockTime = 0 s

Time = 15s

smoothSolver:  Solving for Ux, Initial residual = 0.0170568, Final residual = 0.0011536, No Iterations 5
smoothSolver:  Solving for Uy, Initial residual = 0.182267, Final residual = 0.0124212, No Iterations 4
Pressure gradient source: uncorrected Ubar = 1.00157, pressure gradient = 1.62277
GAMG:  Solving for p, Initial residual = 0.0886202, Final residual = 0.00818361, No Iterations 9
time step continuity errors : sum local = 0.00322445, global = 2.19551e-17, cumulative = 1.21571e-16
Pressure gradient source: uncorrected Ubar = 1.0001, pressure gradient = 1.81928
smoothSolver:  Solving for omega, Initial residual = 0.000522782, Final residual = 3.59033e-05, No Iterations 5
smoothSolver:  Solving for k, Initial residual = 0.0390062, Final residual = 0.00326829, No Iterations 5
ExecutionTime = 0.052426 s  ClockTime = 0 s

Time = 16s

smoothSolver:  Solving for Ux, Initial residual = 0.0158478, Final residual = 0.00109124, No Iterations 5
smoothSolver:  Solving for Uy, Initial residual = 0.170984, Final residual = 0.0121547, No Iterations 4
Pressure gradient source: uncorrected Ubar = 1.00174, pressure gradient = 1.56573
GAMG:  Solving for p, Initial residual = 0.0664596, Final residual = 0.00515916, No Iterations 11
time step continuity errors : sum local = 0.00235406, global = -4.36933e-17, cumulative = 7.78778e-17
Pressure gradient source: uncorrected Ubar = 1.00012, pressure gradient = 1.802
smoothSolver:  Solving for omega, Initial residual = 0.000465595, Final residual = 3.38855e-05, No Iterations 5
smoothSolver:  Solving for k, Initial residual = 0.0342848, Final residual = 0.00303159, No Iterations 5
ExecutionTime = 0.055334 s  ClockTime = 0 s

Time = 17s

smoothSolver:  Solving for Ux, Initial residual = 0.0148507, Final residual = 0.00103566, No Iterations 5
smoothSolver:  Solving for Uy, Initial residual = 0.143385, Final residual = 0.0123951, No Iterations 4
Pressure gradient source: uncorrected Ubar = 1.0026, pressure gradient = 1.3896
GAMG:  Solving for p, Initial residual = 0.0526074, Final residual = 0.0051177, No Iterations 8
time step continuity errors : sum local = 0.00228151, global = -3.82723e-17, cumulative = 3.96055e-17
Pressure gradient source: uncorrected Ubar = 1.00023, pressure gradient = 1.7663
smoothSolver:  Solving for omega, Initial residual = 0.00043901, Final residual = 3.41889e-05, No Iterations 5
smoothSolver:  Solving for k, Initial residual = 0.030457, Final residual = 0.00282073, No Iterations 5
ExecutionTime = 0.058071 s  ClockTime = 0 s

Time = 18s

smoothSolver:  Solving for Ux, Initial residual = 0.0139777, Final residual = 0.000990302, No Iterations 5
smoothSolver:  Solving for Uy, Initial residual = 0.134941, Final residual = 0.0120226, No Iterations 4
Pressure gradient source: uncorrected Ubar = 1.0023, pressure gradient = 1.37245
GAMG:  Solving for p, Initial residual = 0.0417186, Final residual = 0.00289913, No Iterations 10
time step continuity errors : sum local = 0.00118857, global = -1.89329e-17, cumulative = 2.06726e-17
Pressure gradient source: uncorrected Ubar = 1.00018, pressure gradient = 1.73562
smoothSolver:  Solving for omega, Initial residual = 0.000421718, Final residual = 3.35767e-05, No Iterations 5
smoothSolver:  Solving for k, Initial residual = 0.0271995, Final residual = 0.00265718, No Iterations 5
ExecutionTime = 0.060886 s  ClockTime = 0 s

Time = 19s

smoothSolver:  Solving for Ux, Initial residual = 0.0132518, Final residual = 0.000949374, No Iterations 5
smoothSolver:  Solving for Uy, Initial residual = 0.132409, Final residual = 0.0116908, No Iterations 4
Pressure gradient source: uncorrected Ubar = 1.00272, pressure gradient = 1.23665
GAMG:  Solving for p, Initial residual = 0.0312281, Final residual = 0.00309747, No Iterations 8
time step continuity errors : sum local = 0.000972172, global = 1.3905e-17, cumulative = 3.45776e-17
Pressure gradient source: uncorrected Ubar = 1.00023, pressure gradient = 1.69307
smoothSolver:  Solving for omega, Initial residual = 0.000391882, Final residual = 3.37504e-05, No Iterations 5
smoothSolver:  Solving for k, Initial residual = 0.0243348, Final residual = 0.00155002, No Iterations 6
ExecutionTime = 0.06363 s  ClockTime = 0 s

Time = 20s

smoothSolver:  Solving for Ux, Initial residual = 0.01259, Final residual = 0.000915614, No Iterations 5
smoothSolver:  Solving for Uy, Initial residual = 0.113818, Final residual = 0.0106655, No Iterations 4
Pressure gradient source: uncorrected Ubar = 1.00258, pressure gradient = 1.18694
GAMG:  Solving for p, Initial residual = 0.0286922, Final residual = 0.00262558, No Iterations 11
time step continuity errors : sum local = 0.000575557, global = 1.58769e-17, cumulative = 5.04545e-17
Pressure gradient source: uncorrected Ubar = 1.00022, pressure gradient = 1.65054
smoothSolver:  Solving for omega, Initial residual = 0.000375761, Final residual = 3.29165e-05, No Iterations 5
smoothSolver:  Solving for k, Initial residual = 0.0216351, Final residual = 0.00140938, No Iterations 6
ExecutionTime = 0.066508 s  ClockTime = 0 s

Time = 21s

smoothSolver:  Solving for Ux, Initial residual = 0.0120439, Final residual = 0.000885173, No Iterations 5
smoothSolver:  Solving for Uy, Initial residual = 0.0839115, Final residual = 0.00830818, No Iterations 4
Pressure gradient source: uncorrected Ubar = 1.00251, pressure gradient = 1.12749
GAMG:  Solving for p, Initial residual = 0.0271829, Final residual = 0.00223413, No Iterations 14
time step continuity errors : sum local = 0.000481214, global = -4.9548e-17, cumulative = 9.06436e-19
Pressure gradient source: uncorrected Ubar = 1.00021, pressure gradient = 1.60697
smoothSolver:  Solving for omega, Initial residual = 0.000350906, Final residual = 3.20955e-05, No Iterations 5
smoothSolver:  Solving for k, Initial residual = 0.0194533, Final residual = 0.00130544, No Iterations 6
ExecutionTime = 0.069514 s  ClockTime = 0 s

Time = 22s

smoothSolver:  Solving for Ux, Initial residual = 0.0115317, Final residual = 0.000857238, No Iterations 5
smoothSolver:  Solving for Uy, Initial residual = 0.0612725, Final residual = 0.00357077, No Iterations 5
Pressure gradient source: uncorrected Ubar = 1.00234, pressure gradient = 1.0943
GAMG:  Solving for p, Initial residual = 0.0248643, Final residual = 0.00239354, No Iterations 16
time step continuity errors : sum local = 0.000415896, global = 1.5084e-17, cumulative = 1.59904e-17
Pressure gradient source: uncorrected Ubar = 1.00019, pressure gradient = 1.56501
smoothSolver:  Solving for omega, Initial residual = 0.000334245, Final residual = 3.3042e-05, No Iterations 5
smoothSolver:  Solving for k, Initial residual = 0.0175624, Final residual = 0.00120597, No Iterations 6
ExecutionTime = 0.072614 s  ClockTime = 0 s

Time = 23s

smoothSolver:  Solving for Ux, Initial residual = 0.0110816, Final residual = 0.000832631, No Iterations 5
smoothSolver:  Solving for Uy, Initial residual = 0.0425755, Final residual = 0.00286157, No Iterations 5
Pressure gradient source: uncorrected Ubar = 1.00203, pressure gradient = 1.0982
GAMG:  Solving for p, Initial residual = 0.0218024, Final residual = 0.00202989, No Iterations 18
time step continuity errors : sum local = 0.000276154, global = -2.69694e-18, cumulative = 1.32935e-17
Pressure gradient source: uncorrected Ubar = 1.00016, pressure gradient = 1.52917
smoothSolver:  Solving for omega, Initial residual = 0.000318987, Final residual = 3.18293e-05, No Iterations 5
smoothSolver:  Solving for k, Initial residual = 0.0159598, Final residual = 0.00111917, No Iterations 6
ExecutionTime = 0.075798 s  ClockTime = 0 s

Time = 24s

smoothSolver:  Solving for Ux, Initial residual = 0.0106713, Final residual = 0.000808169, No Iterations 5
smoothSolver:  Solving for Uy, Initial residual = 0.0352189, Final residual = 0.00269689, No Iterations 5
Pressure gradient source: uncorrected Ubar = 1.00183, pressure gradient = 1.08744
GAMG:  Solving for p, Initial residual = 0.0224003, Final residual = 0.00220152, No Iterations 17
time step continuity errors : sum local = 0.000234578, global = 1.484e-17, cumulative = 2.81335e-17
Pressure gradient source: uncorrected Ubar = 1.00013, pressure gradient = 1.4968
smoothSolver:  Solving for omega, Initial residual = 0.000303917, Final residual = 1.96967e-05, No Iterations 6
smoothSolver:  Solving for k, Initial residual = 0.0145181, Final residual = 0.00104199, No Iterations 6
ExecutionTime = 0.078953 s  ClockTime = 0 s

Time = 25s

smoothSolver:  Solving for Ux, Initial residual = 0.0102901, Final residual = 0.000787048, No Iterations 5
smoothSolver:  Solving for Uy, Initial residual = 0.0310054, Final residual = 0.00261293, No Iterations 5
Pressure gradient source: uncorrected Ubar = 1.00168, pressure gradient = 1.07295
GAMG:  Solving for p, Initial residual = 0.0193592, Final residual = 0.00192115, No Iterations 13
time step continuity errors : sum local = 0.000179891, global = -8.53809e-18, cumulative = 1.95954e-17
Pressure gradient source: uncorrected Ubar = 1.00012, pressure gradient = 1.46687
smoothSolver:  Solving for omega, Initial residual = 0.000293052, Final residual = 2.05e-05, No Iterations 6
smoothSolver:  Solving for k, Initial residual = 0.013288, Final residual = 0.000957734, No Iterations 6
ExecutionTime = 0.081936 s  ClockTime = 0 s

Time = 26s

smoothSolver:  Solving for Ux, Initial residual = 0.00994833, Final residual = 0.000767393, No Iterations 5
smoothSolver:  Solving for Uy, Initial residual = 0.0312356, Final residual = 0.0027434, No Iterations 5
Pressure gradient source: uncorrected Ubar = 1.00139, pressure gradient = 1.10141
GAMG:  Solving for p, Initial residual = 0.0155953, Final residual = 0.00136224, No Iterations 4
time step continuity errors : sum local = 0.000105863, global = -1.12689e-17, cumulative = 8.32646e-18
Pressure gradient source: uncorrected Ubar = 1.00009, pressure gradient = 1.44431
smoothSolver:  Solving for omega, Initial residual = 0.000278365, Final residual = 1.94808e-05, No Iterations 6
smoothSolver:  Solving for k, Initial residual = 0.0122403, Final residual = 0.000905816, No Iterations 6
ExecutionTime = 0.084483 s  ClockTime = 0 s

Time = 27s

smoothSolver:  Solving for Ux, Initial residual = 0.00963344, Final residual = 0.000748202, No Iterations 5
smoothSolver:  Solving for Uy, Initial residual = 0.0333377, Final residual = 0.00301402, No Iterations 5
Pressure gradient source: uncorrected Ubar = 1.00135, pressure gradient = 1.07413
GAMG:  Solving for p, Initial residual = 0.0139005, Final residual = 0.00115793, No Iterations 7
time step continuity errors : sum local = 7.93232e-05, global = -2.19729e-17, cumulative = -1.36464e-17
Pressure gradient source: uncorrected Ubar = 1.00008, pressure gradient = 1.42139
smoothSolver:  Solving for omega, Initial residual = 0.000269776, Final residual = 1.91502e-05, No Iterations 6
smoothSolver:  Solving for k, Initial residual = 0.0112825, Final residual = 0.000837946, No Iterations 6
ExecutionTime = 0.087187 s  ClockTime = 0 s

Time = 28s

smoothSolver:  Solving for Ux, Initial residual = 0.0093415, Final residual = 0.000727525, No Iterations 5
smoothSolver:  Solving for Uy, Initial residual = 0.0339153, Final residual = 0.00313579, No Iterations 5
Pressure gradient source: uncorrected Ubar = 1.00118, pressure gradient = 1.08629
GAMG:  Solving for p, Initial residual = 0.0130312, Final residual = 0.00117879, No Iterations 8
time step continuity errors : sum local = 0.000102088, global = -8.43645e-18, cumulative = -2.20829e-17
Pressure gradient source: uncorrected Ubar = 1.00006, pressure gradient = 1.40293
smoothSolver:  Solving for omega, Initial residual = 0.000262363, Final residual = 1.8859e-05, No Iterations 6
smoothSolver:  Solving for k, Initial residual = 0.0104705, Final residual = 0.00076916, No Iterations 6
ExecutionTime = 0.089943 s  ClockTime = 0 s

Time = 29s

smoothSolver:  Solving for Ux, Initial residual = 0.00907329, Final residual = 0.000702585, No Iterations 5
smoothSolver:  Solving for Uy, Initial residual = 0.0321384, Final residual = 0.00300094, No Iterations 5
Pressure gradient source: uncorrected Ubar = 1.00095, pressure gradient = 1.12284
GAMG:  Solving for p, Initial residual = 0.0100729, Final residual = 0.000990243, No Iterations 12
time step continuity errors : sum local = 0.000101539, global = 9.3343e-18, cumulative = -1.27486e-17
Pressure gradient source: uncorrected Ubar = 1.00004, pressure gradient = 1.39126
smoothSolver:  Solving for omega, Initial residual = 0.000253919, Final residual = 1.86898e-05, No Iterations 6
smoothSolver:  Solving for k, Initial residual = 0.00967595, Final residual = 0.000698734, No Iterations 6
ExecutionTime = 0.092856 s  ClockTime = 0 s

Time = 30s

smoothSolver:  Solving for Ux, Initial residual = 0.00873428, Final residual = 0.000676695, No Iterations 5
smoothSolver:  Solving for Uy, Initial residual = 0.0310198, Final residual = 0.00284838, No Iterations 5
Pressure gradient source: uncorrected Ubar = 1.00082, pressure gradient = 1.14015
GAMG:  Solving for p, Initial residual = 0.00883748, Final residual = 0.000855185, No Iterations 13
time step continuity errors : sum local = 9.56389e-05, global = -2.02034e-17, cumulative = -3.2952e-17
Pressure gradient source: uncorrected Ubar = 1.00003, pressure gradient = 1.38316
smoothSolver:  Solving for omega, Initial residual = 0.000247926, Final residual = 1.81138e-05, No Iterations 6
smoothSolver:  Solving for k, Initial residual = 0.00902521, Final residual = 0.000641155, No Iterations 6
ExecutionTime = 0.095823 s  ClockTime = 0 s

Time = 31s

smoothSolver:  Solving for Ux, Initial residual = 0.0084147, Final residual = 0.000653251, No Iterations 5
smoothSolver:  Solving for Uy, Initial residual = 0.0303572, Final residual = 0.0028465, No Iterations 5
Pressure gradient source: uncorrected Ubar = 1.00079, pressure gradient = 1.1339
GAMG:  Solving for p, Initial residual = 0.00752473, Final residual = 0.000686982, No Iterations 17
time step continuity errors : sum local = 8.12309e-05, global = -7.7656e-18, cumulative = -4.07176e-17
Pressure gradient source: uncorrected Ubar = 1.00003, pressure gradient = 1.37519
smoothSolver:  Solving for omega, Initial residual = 0.000241881, Final residual = 1.80392e-05, No Iterations 6
smoothSolver:  Solving for k, Initial residual = 0.00857664, Final residual = 0.000604672, No Iterations 6
ExecutionTime = 0.098955 s  ClockTime = 0 s

Time = 32s

smoothSolver:  Solving for Ux, Initial residual = 0.00811388, Final residual = 0.000631852, No Iterations 5
smoothSolver:  Solving for Uy, Initial residual = 0.0285639, Final residual = 0.00270051, No Iterations 5
Pressure gradient source: uncorrected Ubar = 1.00071, pressure gradient = 1.14189
GAMG:  Solving for p, Initial residual = 0.00587864, Final residual = 0.000530542, No Iterations 17
time step continuity errors : sum local = 6.55607e-05, global = 6.64071e-19, cumulative = -4.00535e-17
Pressure gradient source: uncorrected Ubar = 1.00002, pressure gradient = 1.36906
smoothSolver:  Solving for omega, Initial residual = 0.000234957, Final residual = 1.73371e-05, No Iterations 6
smoothSolver:  Solving for k, Initial residual = 0.00823729, Final residual = 0.000587568, No Iterations 6
ExecutionTime = 0.102142 s  ClockTime = 0 s

Time = 33s

smoothSolver:  Solving for Ux, Initial residual = 0.00784641, Final residual = 0.000613103, No Iterations 5
smoothSolver:  Solving for Uy, Initial residual = 0.0271522, Final residual = 0.00262479, No Iterations 5
Pressure gradient source: uncorrected Ubar = 1.00068, pressure gradient = 1.13799
GAMG:  Solving for p, Initial residual = 0.00535712, Final residual = 0.000484919, No Iterations 15
time step continuity errors : sum local = 6.08334e-05, global = -7.34208e-18, cumulative = -4.73956e-17
Pressure gradient source: uncorrected Ubar = 1.00002, pressure gradient = 1.36308
smoothSolver:  Solving for omega, Initial residual = 0.000228728, Final residual = 1.71418e-05, No Iterations 6
smoothSolver:  Solving for k, Initial residual = 0.00793829, Final residual = 0.00057011, No Iterations 6
ExecutionTime = 0.105185 s  ClockTime = 0 s

Time = 34s

smoothSolver:  Solving for Ux, Initial residual = 0.00759712, Final residual = 0.000595572, No Iterations 5
smoothSolver:  Solving for Uy, Initial residual = 0.0274654, Final residual = 0.00178239, No Iterations 6
Pressure gradient source: uncorrected Ubar = 1.00065, pressure gradient = 1.1352
GAMG:  Solving for p, Initial residual = 0.00444305, Final residual = 0.000440801, No Iterations 15
time step continuity errors : sum local = 5.52822e-05, global = -3.57753e-17, cumulative = -8.31709e-17
Pressure gradient source: uncorrected Ubar = 1.00002, pressure gradient = 1.35736
smoothSolver:  Solving for omega, Initial residual = 0.000222854, Final residual = 1.70499e-05, No Iterations 6
smoothSolver:  Solving for k, Initial residual = 0.00772755, Final residual = 0.000558296, No Iterations 6
ExecutionTime = 0.108253 s  ClockTime = 0 s

Time = 35s

smoothSolver:  Solving for Ux, Initial residual = 0.00736859, Final residual = 0.000579852, No Iterations 5
smoothSolver:  Solving for Uy, Initial residual = 0.027986, Final residual = 0.00187543, No Iterations 6
Pressure gradient source: uncorrected Ubar = 1.00061, pressure gradient = 1.13736
GAMG:  Solving for p, Initial residual = 0.00433791, Final residual = 0.000398409, No Iterations 15
time step continuity errors : sum local = 5.0091e-05, global = -6.5086e-18, cumulative = -8.96795e-17
Pressure gradient source: uncorrected Ubar = 1.00001, pressure gradient = 1.35247
smoothSolver:  Solving for omega, Initial residual = 0.000216106, Final residual = 1.657e-05, No Iterations 6
smoothSolver:  Solving for k, Initial residual = 0.00759796, Final residual = 0.000554617, No Iterations 6
ExecutionTime = 0.111334 s  ClockTime = 0 s

Time = 36s

smoothSolver:  Solving for Ux, Initial residual = 0.00716418, Final residual = 0.000565894, No Iterations 5
smoothSolver:  Solving for Uy, Initial residual = 0.0288197, Final residual = 0.001956, No Iterations 6
Pressure gradient source: uncorrected Ubar = 1.00059, pressure gradient = 1.13462
GAMG:  Solving for p, Initial residual = 0.00379664, Final residual = 0.000357589, No Iterations 15
time step continuity errors : sum local = 4.50307e-05, global = -1.41353e-17, cumulative = -1.03815e-16
Pressure gradient source: uncorrected Ubar = 1.00001, pressure gradient = 1.34774
smoothSolver:  Solving for omega, Initial residual = 0.000209298, Final residual = 1.56791e-05, No Iterations 6
smoothSolver:  Solving for k, Initial residual = 0.00746513, Final residual = 0.000547391, No Iterations 6
ExecutionTime = 0.114439 s  ClockTime = 0 s

Time = 37s

smoothSolver:  Solving for Ux, Initial residual = 0.00697793, Final residual = 0.000553951, No Iterations 5
smoothSolver:  Solving for Uy, Initial residual = 0.0286257, Final residual = 0.00198379, No Iterations 6
Pressure gradient source: uncorrected Ubar = 1.00059, pressure gradient = 1.12295
GAMG:  Solving for p, Initial residual = 0.00356677, Final residual = 0.000311865, No Iterations 15
time step continuity errors : sum local = 3.93271e-05, global = -1.98206e-19, cumulative = -1.04013e-16
Pressure gradient source: uncorrected Ubar = 1.00001, pressure gradient = 1.34208
smoothSolver:  Solving for omega, Initial residual = 0.000203362, Final residual = 1.54016e-05, No Iterations 6
smoothSolver:  Solving for k, Initial residual = 0.00739378, Final residual = 0.000550076, No Iterations 6
ExecutionTime = 0.1175 s  ClockTime = 0 s

Time = 38s

smoothSolver:  Solving for Ux, Initial residual = 0.00680357, Final residual = 0.000542934, No Iterations 5
smoothSolver:  Solving for Uy, Initial residual = 0.0277572, Final residual = 0.00185998, No Iterations 6
Pressure gradient source: uncorrected Ubar = 1.00056, pressure gradient = 1.1233
GAMG:  Solving for p, Initial residual = 0.00297664, Final residual = 0.000268917, No Iterations 12
time step continuity errors : sum local = 3.42252e-05, global = -2.17501e-17, cumulative = -1.25763e-16
Pressure gradient source: uncorrected Ubar = 1.00001, pressure gradient = 1.33711
smoothSolver:  Solving for omega, Initial residual = 0.000197354, Final residual = 1.48567e-05, No Iterations 6
smoothSolver:  Solving for k, Initial residual = 0.00732225, Final residual = 0.000542589, No Iterations 6
ExecutionTime = 0.120471 s  ClockTime = 0 s

Time = 39s

smoothSolver:  Solving for Ux, Initial residual = 0.00664018, Final residual = 0.000532568, No Iterations 5
smoothSolver:  Solving for Uy, Initial residual = 0.0261624, Final residual = 0.00185566, No Iterations 6
Pressure gradient source: uncorrected Ubar = 1.00053, pressure gradient = 1.12443
GAMG:  Solving for p, Initial residual = 0.00263246, Final residual = 0.000252964, No Iterations 13
time step continuity errors : sum local = 3.1197e-05, global = 5.86486e-17, cumulative = -6.71145e-17
Pressure gradient source: uncorrected Ubar = 1.00001, pressure gradient = 1.33284
smoothSolver:  Solving for omega, Initial residual = 0.000191649, Final residual = 1.48114e-05, No Iterations 6
smoothSolver:  Solving for k, Initial residual = 0.00724103, Final residual = 0.000546638, No Iterations 6
ExecutionTime = 0.123506 s  ClockTime = 0 s

Time = 40s

smoothSolver:  Solving for Ux, Initial residual = 0.00648854, Final residual = 0.000522813, No Iterations 5
smoothSolver:  Solving for Uy, Initial residual = 0.0257032, Final residual = 0.00183997, No Iterations 6
Pressure gradient source: uncorrected Ubar = 1.00053, pressure gradient = 1.11448
GAMG:  Solving for p, Initial residual = 0.00253244, Final residual = 0.000226515, No Iterations 15
time step continuity errors : sum local = 2.7568e-05, global = 1.49755e-18, cumulative = -6.5617e-17
Pressure gradient source: uncorrected Ubar = 1.00001, pressure gradient = 1.32781
smoothSolver:  Solving for omega, Initial residual = 0.000185788, Final residual = 1.4213e-05, No Iterations 6
smoothSolver:  Solving for k, Initial residual = 0.00719928, Final residual = 0.000546046, No Iterations 6
ExecutionTime = 0.126594 s  ClockTime = 0 s

Time = 41s

smoothSolver:  Solving for Ux, Initial residual = 0.00634953, Final residual = 0.000514412, No Iterations 5
smoothSolver:  Solving for Uy, Initial residual = 0.0251996, Final residual = 0.00180598, No Iterations 6
Pressure gradient source: uncorrected Ubar = 1.00052, pressure gradient = 1.10723
GAMG:  Solving for p, Initial residual = 0.00245778, Final residual = 0.000216294, No Iterations 15
time step continuity errors : sum local = 2.59312e-05, global = 1.52686e-17, cumulative = -5.03484e-17
Pressure gradient source: uncorrected Ubar = 1.00001, pressure gradient = 1.32248
smoothSolver:  Solving for omega, Initial residual = 0.000180485, Final residual = 1.39171e-05, No Iterations 6
smoothSolver:  Solving for k, Initial residual = 0.0071386, Final residual = 0.000543028, No Iterations 6
ExecutionTime = 0.129689 s  ClockTime = 0 s

Time = 42s

smoothSolver:  Solving for Ux, Initial residual = 0.00621798, Final residual = 0.000506237, No Iterations 5
smoothSolver:  Solving for Uy, Initial residual = 0.0258503, Final residual = 0.00188178, No Iterations 6
Pressure gradient source: uncorrected Ubar = 1.00053, pressure gradient = 1.09346
GAMG:  Solving for p, Initial residual = 0.00241136, Final residual = 0.000224816, No Iterations 15
time step continuity errors : sum local = 2.68011e-05, global = 4.67054e-17, cumulative = -3.64296e-18
Pressure gradient source: uncorrected Ubar = 1.00001, pressure gradient = 1.31601
smoothSolver:  Solving for omega, Initial residual = 0.00017529, Final residual = 1.36222e-05, No Iterations 6
smoothSolver:  Solving for k, Initial residual = 0.0070848, Final residual = 0.000544686, No Iterations 6
ExecutionTime = 0.132788 s  ClockTime = 0 s

Time = 43s

smoothSolver:  Solving for Ux, Initial residual = 0.00609463, Final residual = 0.000498558, No Iterations 5
smoothSolver:  Solving for Uy, Initial residual = 0.0261316, Final residual = 0.0019164, No Iterations 6
Pressure gradient source: uncorrected Ubar = 1.00052, pressure gradient = 1.08474
GAMG:  Solving for p, Initial residual = 0.00229462, Final residual = 0.000210272, No Iterations 15
time step continuity errors : sum local = 2.5086e-05, global = -8.95144e-18, cumulative = -1.25944e-17
Pressure gradient source: uncorrected Ubar = 1.00002, pressure gradient = 1.30918
smoothSolver:  Solving for omega, Initial residual = 0.000170015, Final residual = 1.34076e-05, No Iterations 6
smoothSolver:  Solving for k, Initial residual = 0.00707555, Final residual = 0.000551084, No Iterations 6
ExecutionTime = 0.135973 s  ClockTime = 0 s

Time = 44s

smoothSolver:  Solving for Ux, Initial residual = 0.00597445, Final residual = 0.000491027, No Iterations 5
smoothSolver:  Solving for Uy, Initial residual = 0.0262466, Final residual = 0.00192578, No Iterations 6
Pressure gradient source: uncorrected Ubar = 1.0005, pressure gradient = 1.08429
GAMG:  Solving for p, Initial residual = 0.00217214, Final residual = 0.000195717, No Iterations 15
time step continuity errors : sum local = 2.32552e-05, global = 3.84892e-18, cumulative = -8.74549e-18
Pressure gradient source: uncorrected Ubar = 1.00001, pressure gradient = 1.30312
smoothSolver:  Solving for omega, Initial residual = 0.000164834, Final residual = 1.29751e-05, No Iterations 6
smoothSolver:  Solving for k, Initial residual = 0.00701703, Final residual = 0.000545711, No Iterations 6
ExecutionTime = 0.139059 s  ClockTime = 0 s

Time = 45s

smoothSolver:  Solving for Ux, Initial residual = 0.00586463, Final residual = 0.000484546, No Iterations 5
smoothSolver:  Solving for Uy, Initial residual = 0.0258197, Final residual = 0.0019058, No Iterations 6
Pressure gradient source: uncorrected Ubar = 1.00047, pressure gradient = 1.08467
GAMG:  Solving for p, Initial residual = 0.00208083, Final residual = 0.00018457, No Iterations 15
time step continuity errors : sum local = 2.18055e-05, global = 3.89296e-18, cumulative = -4.85253e-18
Pressure gradient source: uncorrected Ubar = 1.00001, pressure gradient = 1.29784
smoothSolver:  Solving for omega, Initial residual = 0.000160106, Final residual = 1.26354e-05, No Iterations 6
smoothSolver:  Solving for k, Initial residual = 0.00695234, Final residual = 0.000542646, No Iterations 6
ExecutionTime = 0.142174 s  ClockTime = 0 s

Time = 46s

smoothSolver:  Solving for Ux, Initial residual = 0.00576037, Final residual = 0.000478337, No Iterations 5
smoothSolver:  Solving for Uy, Initial residual = 0.0249078, Final residual = 0.00185393, No Iterations 6
Pressure gradient source: uncorrected Ubar = 1.00046, pressure gradient = 1.08179
GAMG:  Solving for p, Initial residual = 0.00205982, Final residual = 0.00018244, No Iterations 15
time step continuity errors : sum local = 2.13654e-05, global = -7.20994e-18, cumulative = -1.20625e-17
Pressure gradient source: uncorrected Ubar = 1.00001, pressure gradient = 1.29285
smoothSolver:  Solving for omega, Initial residual = 0.000155507, Final residual = 1.23233e-05, No Iterations 6
smoothSolver:  Solving for k, Initial residual = 0.00691764, Final residual = 0.000544068, No Iterations 6
ExecutionTime = 0.145224 s  ClockTime = 0 s

Time = 47s

smoothSolver:  Solving for Ux, Initial residual = 0.00565988, Final residual = 0.000472214, No Iterations 5
smoothSolver:  Solving for Uy, Initial residual = 0.0241084, Final residual = 0.00179748, No Iterations 6
Pressure gradient source: uncorrected Ubar = 1.00043, pressure gradient = 1.08491
GAMG:  Solving for p, Initial residual = 0.00186705, Final residual = 0.000165855, No Iterations 14
time step continuity errors : sum local = 1.95324e-05, global = 3.59311e-18, cumulative = -8.46936e-18
Pressure gradient source: uncorrected Ubar = 1.00001, pressure gradient = 1.28889
smoothSolver:  Solving for omega, Initial residual = 0.000150999, Final residual = 1.19101e-05, No Iterations 6
smoothSolver:  Solving for k, Initial residual = 0.00686809, Final residual = 0.000543601, No Iterations 6
ExecutionTime = 0.148253 s  ClockTime = 0 s

Time = 48s

smoothSolver:  Solving for Ux, Initial residual = 0.00556208, Final residual = 0.000465858, No Iterations 5
smoothSolver:  Solving for Uy, Initial residual = 0.0229603, Final residual = 0.00172571, No Iterations 6
Pressure gradient source: uncorrected Ubar = 1.00041, pressure gradient = 1.08617
GAMG:  Solving for p, Initial residual = 0.00193788, Final residual = 0.000184842, No Iterations 12
time step continuity errors : sum local = 2.14971e-05, global = -8.37038e-18, cumulative = -1.68397e-17
Pressure gradient source: uncorrected Ubar = 1.00001, pressure gradient = 1.28565
smoothSolver:  Solving for omega, Initial residual = 0.000147081, Final residual = 1.16832e-05, No Iterations 6
smoothSolver:  Solving for k, Initial residual = 0.0068255, Final residual = 0.000539135, No Iterations 6
ExecutionTime = 0.151228 s  ClockTime = 0 s

Time = 49s

smoothSolver:  Solving for Ux, Initial residual = 0.00546919, Final residual = 0.000460114, No Iterations 5
smoothSolver:  Solving for Uy, Initial residual = 0.0223152, Final residual = 0.00168815, No Iterations 6
Pressure gradient source: uncorrected Ubar = 1.00039, pressure gradient = 1.08796
GAMG:  Solving for p, Initial residual = 0.00169136, Final residual = 0.000160913, No Iterations 12
time step continuity errors : sum local = 1.84955e-05, global = -2.78674e-19, cumulative = -1.71184e-17
Pressure gradient source: uncorrected Ubar = 1.00001, pressure gradient = 1.2831
smoothSolver:  Solving for omega, Initial residual = 0.000142903, Final residual = 1.13435e-05, No Iterations 6
smoothSolver:  Solving for k, Initial residual = 0.00679174, Final residual = 0.000543229, No Iterations 6
ExecutionTime = 0.154208 s  ClockTime = 0 s

Time = 50s

smoothSolver:  Solving for Ux, Initial residual = 0.00538264, Final residual = 0.000454704, No Iterations 5
smoothSolver:  Solving for Uy, Initial residual = 0.0212811, Final residual = 0.00162563, No Iterations 6
Pressure gradient source: uncorrected Ubar = 1.00037, pressure gradient = 1.0911
GAMG:  Solving for p, Initial residual = 0.00158908, Final residual = 0.000137783, No Iterations 12
time step continuity errors : sum local = 1.55417e-05, global = 6.0332e-18, cumulative = -1.10852e-17
Pressure gradient source: uncorrected Ubar = 1, pressure gradient = 1.28136
smoothSolver:  Solving for omega, Initial residual = 0.000139176, Final residual = 1.10961e-05, No Iterations 6
smoothSolver:  Solving for k, Initial residual = 0.00674583, Final residual = 0.00053903, No Iterations 6
ExecutionTime = 0.157164 s  ClockTime = 0 s

Time = 51s

smoothSolver:  Solving for Ux, Initial residual = 0.00529845, Final residual = 0.000449473, No Iterations 5
smoothSolver:  Solving for Uy, Initial residual = 0.0200351, Final residual = 0.00154461, No Iterations 6
Pressure gradient source: uncorrected Ubar = 1.00035, pressure gradient = 1.09595
GAMG:  Solving for p, Initial residual = 0.00144739, Final residual = 0.000143142, No Iterations 10
time step continuity errors : sum local = 1.5752e-05, global = 1.59581e-17, cumulative = 4.87289e-18
Pressure gradient source: uncorrected Ubar = 1, pressure gradient = 1.28056
smoothSolver:  Solving for omega, Initial residual = 0.00013551, Final residual = 1.08095e-05, No Iterations 6
smoothSolver:  Solving for k, Initial residual = 0.0066872, Final residual = 0.000534212, No Iterations 6
ExecutionTime = 0.160044 s  ClockTime = 0 s

Time = 52s

smoothSolver:  Solving for Ux, Initial residual = 0.00521591, Final residual = 0.000444216, No Iterations 5
smoothSolver:  Solving for Uy, Initial residual = 0.0190222, Final residual = 0.00147394, No Iterations 6
Pressure gradient source: uncorrected Ubar = 1.00034, pressure gradient = 1.09814
GAMG:  Solving for p, Initial residual = 0.00135843, Final residual = 0.000120873, No Iterations 10
time step continuity errors : sum local = 1.30196e-05, global = 4.45793e-18, cumulative = 9.33083e-18
Pressure gradient source: uncorrected Ubar = 1, pressure gradient = 1.28025
smoothSolver:  Solving for omega, Initial residual = 0.000131809, Final residual = 1.05142e-05, No Iterations 6
smoothSolver:  Solving for k, Initial residual = 0.00667242, Final residual = 0.000537796, No Iterations 6
ExecutionTime = 0.162914 s  ClockTime = 0 s

Time = 53s

smoothSolver:  Solving for Ux, Initial residual = 0.00513461, Final residual = 0.000438881, No Iterations 5
smoothSolver:  Solving for Uy, Initial residual = 0.017873, Final residual = 0.0013944, No Iterations 6
Pressure gradient source: uncorrected Ubar = 1.00032, pressure gradient = 1.10459
GAMG:  Solving for p, Initial residual = 0.00137857, Final residual = 0.000125032, No Iterations 8
time step continuity errors : sum local = 1.30391e-05, global = 1.50433e-18, cumulative = 1.08352e-17
Pressure gradient source: uncorrected Ubar = 0.999999, pressure gradient = 1.28097
smoothSolver:  Solving for omega, Initial residual = 0.000128502, Final residual = 1.02247e-05, No Iterations 6
smoothSolver:  Solving for k, Initial residual = 0.00661825, Final residual = 0.000534986, No Iterations 6
ExecutionTime = 0.165687 s  ClockTime = 0 s

Time = 54s

smoothSolver:  Solving for Ux, Initial residual = 0.00505868, Final residual = 0.000434058, No Iterations 5
smoothSolver:  Solving for Uy, Initial residual = 0.0171044, Final residual = 0.00134442, No Iterations 6
Pressure gradient source: uncorrected Ubar = 1.00031, pressure gradient = 1.10607
GAMG:  Solving for p, Initial residual = 0.00127479, Final residual = 0.000116431, No Iterations 8
time step continuity errors : sum local = 1.17902e-05, global = 5.96566e-18, cumulative = 1.68008e-17
Pressure gradient source: uncorrected Ubar = 0.999998, pressure gradient = 1.28198
smoothSolver:  Solving for omega, Initial residual = 0.000125123, Final residual = 1.00248e-05, No Iterations 6
smoothSolver:  Solving for k, Initial residual = 0.00658177, Final residual = 0.000531406, No Iterations 6
ExecutionTime = 0.168435 s  ClockTime = 0 s

Time = 55s

smoothSolver:  Solving for Ux, Initial residual = 0.00498665, Final residual = 0.000429367, No Iterations 5
smoothSolver:  Solving for Uy, Initial residual = 0.0162983, Final residual = 0.00127643, No Iterations 6
Pressure gradient source: uncorrected Ubar = 1.0003, pressure gradient = 1.10754
GAMG:  Solving for p, Initial residual = 0.00117918, Final residual = 0.000109731, No Iterations 8
time step continuity errors : sum local = 1.09559e-05, global = 1.61529e-17, cumulative = 3.29537e-17
Pressure gradient source: uncorrected Ubar = 0.999998, pressure gradient = 1.28323
smoothSolver:  Solving for omega, Initial residual = 0.000121893, Final residual = 9.76411e-06, No Iterations 6
smoothSolver:  Solving for k, Initial residual = 0.00652451, Final residual = 0.000527674, No Iterations 6
ExecutionTime = 0.171224 s  ClockTime = 0 s

Time = 56s

smoothSolver:  Solving for Ux, Initial residual = 0.00491688, Final residual = 0.000424737, No Iterations 5
smoothSolver:  Solving for Uy, Initial residual = 0.0155173, Final residual = 0.00120636, No Iterations 6
Pressure gradient source: uncorrected Ubar = 1.0003, pressure gradient = 1.10709
GAMG:  Solving for p, Initial residual = 0.00118756, Final residual = 0.000114097, No Iterations 9
time step continuity errors : sum local = 1.11063e-05, global = -3.78213e-17, cumulative = -4.86755e-18
Pressure gradient source: uncorrected Ubar = 0.999998, pressure gradient = 1.28444
smoothSolver:  Solving for omega, Initial residual = 0.000118823, Final residual = 9.54245e-06, No Iterations 6
smoothSolver:  Solving for k, Initial residual = 0.00649129, Final residual = 0.000525617, No Iterations 6
ExecutionTime = 0.174019 s  ClockTime = 0 s

Time = 57s

smoothSolver:  Solving for Ux, Initial residual = 0.00484794, Final residual = 0.000420154, No Iterations 5
smoothSolver:  Solving for Uy, Initial residual = 0.0148234, Final residual = 0.001136, No Iterations 6
Pressure gradient source: uncorrected Ubar = 1.00029, pressure gradient = 1.10735
GAMG:  Solving for p, Initial residual = 0.00100371, Final residual = 9.17259e-05, No Iterations 9
time step continuity errors : sum local = 8.93602e-06, global = 9.33939e-18, cumulative = 4.47183e-18
Pressure gradient source: uncorrected Ubar = 0.999998, pressure gradient = 1.28572
smoothSolver:  Solving for omega, Initial residual = 0.000115777, Final residual = 9.27014e-06, No Iterations 6
smoothSolver:  Solving for k, Initial residual = 0.00645569, Final residual = 0.000525778, No Iterations 6
ExecutionTime = 0.176811 s  ClockTime = 0 s

Time = 58s

smoothSolver:  Solving for Ux, Initial residual = 0.00477915, Final residual = 0.000415845, No Iterations 5
smoothSolver:  Solving for Uy, Initial residual = 0.0143188, Final residual = 0.00108636, No Iterations 6
Pressure gradient source: uncorrected Ubar = 1.00029, pressure gradient = 1.10974
GAMG:  Solving for p, Initial residual = 0.00099384, Final residual = 8.20403e-05, No Iterations 8
time step continuity errors : sum local = 7.88539e-06, global = -4.60761e-17, cumulative = -4.16042e-17
Pressure gradient source: uncorrected Ubar = 0.999997, pressure gradient = 1.28737
smoothSolver:  Solving for omega, Initial residual = 0.000112969, Final residual = 9.0015e-06, No Iterations 6
smoothSolver:  Solving for k, Initial residual = 0.00642181, Final residual = 0.000522325, No Iterations 6
ExecutionTime = 0.179578 s  ClockTime = 0 s

Time = 59s

smoothSolver:  Solving for Ux, Initial residual = 0.00471659, Final residual = 0.000411714, No Iterations 5
smoothSolver:  Solving for Uy, Initial residual = 0.0141268, Final residual = 0.00105986, No Iterations 6
Pressure gradient source: uncorrected Ubar = 1.00029, pressure gradient = 1.10504
GAMG:  Solving for p, Initial residual = 0.000933855, Final residual = 8.23376e-05, No Iterations 6
time step continuity errors : sum local = 7.83942e-06, global = 1.77191e-17, cumulative = -2.38851e-17
Pressure gradient source: uncorrected Ubar = 0.999998, pressure gradient = 1.28843
smoothSolver:  Solving for omega, Initial residual = 0.000110287, Final residual = 8.85518e-06, No Iterations 6
smoothSolver:  Solving for k, Initial residual = 0.00638939, Final residual = 0.000524624, No Iterations 6
ExecutionTime = 0.182239 s  ClockTime = 0 s

Time = 60s

smoothSolver:  Solving for Ux, Initial residual = 0.00465608, Final residual = 0.000407592, No Iterations 5
smoothSolver:  Solving for Uy, Initial residual = 0.0139271, Final residual = 0.00105722, No Iterations 6
Pressure gradient source: uncorrected Ubar = 1.00029, pressure gradient = 1.10296
GAMG:  Solving for p, Initial residual = 0.000891276, Final residual = 8.83695e-05, No Iterations 6
time step continuity errors : sum local = 8.06823e-06, global = -1.4353e-17, cumulative = -3.82381e-17
Pressure gradient source: uncorrected Ubar = 0.999999, pressure gradient = 1.28931
smoothSolver:  Solving for omega, Initial residual = 0.000107775, Final residual = 8.63947e-06, No Iterations 6
smoothSolver:  Solving for k, Initial residual = 0.00635181, Final residual = 0.000520802, No Iterations 6
ExecutionTime = 0.184891 s  ClockTime = 0 s

Time = 61s

smoothSolver:  Solving for Ux, Initial residual = 0.00459708, Final residual = 0.000403592, No Iterations 5
smoothSolver:  Solving for Uy, Initial residual = 0.01364, Final residual = 0.00103641, No Iterations 6
Pressure gradient source: uncorrected Ubar = 1.00029, pressure gradient = 1.09889
GAMG:  Solving for p, Initial residual = 0.000776345, Final residual = 6.10351e-05, No Iterations 9
time step continuity errors : sum local = 5.39872e-06, global = -1.03709e-17, cumulative = -4.8609e-17
Pressure gradient source: uncorrected Ubar = 0.999999, pressure gradient = 1.28978
smoothSolver:  Solving for omega, Initial residual = 0.000105182, Final residual = 8.42337e-06, No Iterations 6
smoothSolver:  Solving for k, Initial residual = 0.00631215, Final residual = 0.000517504, No Iterations 6
ExecutionTime = 0.187703 s  ClockTime = 0 s

Time = 62s

smoothSolver:  Solving for Ux, Initial residual = 0.00453914, Final residual = 0.000399663, No Iterations 5
smoothSolver:  Solving for Uy, Initial residual = 0.0131915, Final residual = 0.000993202, No Iterations 6
Pressure gradient source: uncorrected Ubar = 1.00029, pressure gradient = 1.09457
GAMG:  Solving for p, Initial residual = 0.000837371, Final residual = 7.74222e-05, No Iterations 7
time step continuity errors : sum local = 6.10213e-06, global = -1.71655e-17, cumulative = -6.57745e-17
Pressure gradient source: uncorrected Ubar = 1, pressure gradient = 1.28985
smoothSolver:  Solving for omega, Initial residual = 0.00010279, Final residual = 8.23877e-06, No Iterations 6
smoothSolver:  Solving for k, Initial residual = 0.00629077, Final residual = 0.000516082, No Iterations 6
ExecutionTime = 0.190432 s  ClockTime = 0 s

Time = 63s

smoothSolver:  Solving for Ux, Initial residual = 0.00448175, Final residual = 0.000396175, No Iterations 5
smoothSolver:  Solving for Uy, Initial residual = 0.0130057, Final residual = 0.000971337, No Iterations 6
Pressure gradient source: uncorrected Ubar = 1.00029, pressure gradient = 1.08935
GAMG:  Solving for p, Initial residual = 0.000806834, Final residual = 6.69671e-05, No Iterations 7
time step continuity errors : sum local = 4.66853e-06, global = -1.25988e-17, cumulative = -7.83733e-17
Pressure gradient source: uncorrected Ubar = 1, pressure gradient = 1.28947
smoothSolver:  Solving for omega, Initial residual = 0.000100413, Final residual = 8.06801e-06, No Iterations 6
smoothSolver:  Solving for k, Initial residual = 0.00625471, Final residual = 0.000515509, No Iterations 6
ExecutionTime = 0.193142 s  ClockTime = 0 s

Time = 64s

smoothSolver:  Solving for Ux, Initial residual = 0.00442895, Final residual = 0.00039272, No Iterations 5
smoothSolver:  Solving for Uy, Initial residual = 0.0126612, Final residual = 0.000938766, No Iterations 6
Pressure gradient source: uncorrected Ubar = 1.00029, pressure gradient = 1.08104
GAMG:  Solving for p, Initial residual = 0.000790723, Final residual = 7.20731e-05, No Iterations 7
time step continuity errors : sum local = 4.24944e-06, global = -1.26644e-17, cumulative = -9.10377e-17
Pressure gradient source: uncorrected Ubar = 1, pressure gradient = 1.2883
smoothSolver:  Solving for omega, Initial residual = 9.81799e-05, Final residual = 7.84602e-06, No Iterations 6
smoothSolver:  Solving for k, Initial residual = 0.00621796, Final residual = 0.000512015, No Iterations 6
ExecutionTime = 0.19585 s  ClockTime = 0 s

Time = 65s

smoothSolver:  Solving for Ux, Initial residual = 0.00437896, Final residual = 0.000389323, No Iterations 5
smoothSolver:  Solving for Uy, Initial residual = 0.012363, Final residual = 0.000914004, No Iterations 6
Pressure gradient source: uncorrected Ubar = 1.0003, pressure gradient = 1.07196
GAMG:  Solving for p, Initial residual = 0.000845712, Final residual = 7.67262e-05, No Iterations 6
time step continuity errors : sum local = 4.83962e-06, global = 1.00395e-17, cumulative = -8.09982e-17
Pressure gradient source: uncorrected Ubar = 1, pressure gradient = 1.28631
smoothSolver:  Solving for omega, Initial residual = 9.60608e-05, Final residual = 7.64959e-06, No Iterations 6
smoothSolver:  Solving for k, Initial residual = 0.00619211, Final residual = 0.000511726, No Iterations 6
ExecutionTime = 0.198509 s  ClockTime = 0 s

Time = 66s

smoothSolver:  Solving for Ux, Initial residual = 0.00433038, Final residual = 0.000386077, No Iterations 5
smoothSolver:  Solving for Uy, Initial residual = 0.0124275, Final residual = 0.000921338, No Iterations 6
Pressure gradient source: uncorrected Ubar = 1.0003, pressure gradient = 1.06204
GAMG:  Solving for p, Initial residual = 0.00080572, Final residual = 5.08665e-05, No Iterations 5
time step continuity errors : sum local = 3.90883e-06, global = -1.07095e-17, cumulative = -9.17077e-17
Pressure gradient source: uncorrected Ubar = 1, pressure gradient = 1.28351
smoothSolver:  Solving for omega, Initial residual = 9.41837e-05, Final residual = 7.56589e-06, No Iterations 6
smoothSolver:  Solving for k, Initial residual = 0.0061675, Final residual = 0.000509817, No Iterations 6
ExecutionTime = 0.201136 s  ClockTime = 0 s

Time = 67s

smoothSolver:  Solving for Ux, Initial residual = 0.00428274, Final residual = 0.000382886, No Iterations 5
smoothSolver:  Solving for Uy, Initial residual = 0.0120418, Final residual = 0.000905424, No Iterations 6
Pressure gradient source: uncorrected Ubar = 1.0003, pressure gradient = 1.05313
GAMG:  Solving for p, Initial residual = 0.000681604, Final residual = 6.05184e-05, No Iterations 4
time step continuity errors : sum local = 4.16344e-06, global = -2.50891e-18, cumulative = -9.42166e-17
Pressure gradient source: uncorrected Ubar = 1, pressure gradient = 1.28011
smoothSolver:  Solving for omega, Initial residual = 9.23508e-05, Final residual = 7.40272e-06, No Iterations 6
smoothSolver:  Solving for k, Initial residual = 0.00613454, Final residual = 0.000508, No Iterations 6
ExecutionTime = 0.20375 s  ClockTime = 0 s

Time = 68s

smoothSolver:  Solving for Ux, Initial residual = 0.00423567, Final residual = 0.000380119, No Iterations 5
smoothSolver:  Solving for Uy, Initial residual = 0.0116261, Final residual = 0.000875244, No Iterations 6
Pressure gradient source: uncorrected Ubar = 1.00031, pressure gradient = 1.04149
GAMG:  Solving for p, Initial residual = 0.000669897, Final residual = 5.9542e-05, No Iterations 5
time step continuity errors : sum local = 3.29808e-06, global = 3.80233e-18, cumulative = -9.04143e-17
Pressure gradient source: uncorrected Ubar = 1.00001, pressure gradient = 1.27585
smoothSolver:  Solving for omega, Initial residual = 9.07363e-05, Final residual = 7.2661e-06, No Iterations 6
smoothSolver:  Solving for k, Initial residual = 0.00611311, Final residual = 0.000508382, No Iterations 6
ExecutionTime = 0.206444 s  ClockTime = 0 s

Time = 69s

smoothSolver:  Solving for Ux, Initial residual = 0.00419151, Final residual = 0.000377369, No Iterations 5
smoothSolver:  Solving for Uy, Initial residual = 0.0114453, Final residual = 0.000860634, No Iterations 6
Pressure gradient source: uncorrected Ubar = 1.00031, pressure gradient = 1.02826
GAMG:  Solving for p, Initial residual = 0.00063185, Final residual = 5.60791e-05, No Iterations 9
time step continuity errors : sum local = 3.40682e-06, global = -1.12952e-18, cumulative = -9.15438e-17
Pressure gradient source: uncorrected Ubar = 1.00001, pressure gradient = 1.2706
smoothSolver:  Solving for omega, Initial residual = 8.9463e-05, Final residual = 7.19912e-06, No Iterations 6
smoothSolver:  Solving for k, Initial residual = 0.00608439, Final residual = 0.000506622, No Iterations 6
ExecutionTime = 0.209434 s  ClockTime = 0 s

Time = 70s

smoothSolver:  Solving for Ux, Initial residual = 0.00414992, Final residual = 0.000374564, No Iterations 5
smoothSolver:  Solving for Uy, Initial residual = 0.0114257, Final residual = 0.000857728, No Iterations 6
Pressure gradient source: uncorrected Ubar = 1.00032, pressure gradient = 1.01312
GAMG:  Solving for p, Initial residual = 0.000691604, Final residual = 6.07744e-05, No Iterations 10
time step continuity errors : sum local = 4.08151e-06, global = -2.13084e-17, cumulative = -1.12852e-16
Pressure gradient source: uncorrected Ubar = 1.00001, pressure gradient = 1.26425
smoothSolver:  Solving for omega, Initial residual = 8.81528e-05, Final residual = 7.05105e-06, No Iterations 6
smoothSolver:  Solving for k, Initial residual = 0.00604962, Final residual = 0.000503635, No Iterations 6
ExecutionTime = 0.212294 s  ClockTime = 0 s

Time = 71s

smoothSolver:  Solving for Ux, Initial residual = 0.00410949, Final residual = 0.000371897, No Iterations 5
smoothSolver:  Solving for Uy, Initial residual = 0.0115203, Final residual = 0.000867122, No Iterations 6
Pressure gradient source: uncorrected Ubar = 1.00032, pressure gradient = 1.00012
GAMG:  Solving for p, Initial residual = 0.00064109, Final residual = 5.28558e-05, No Iterations 12
time step continuity errors : sum local = 4.00721e-06, global = -8.76679e-18, cumulative = -1.21619e-16
Pressure gradient source: uncorrected Ubar = 1.00001, pressure gradient = 1.2572
smoothSolver:  Solving for omega, Initial residual = 8.68166e-05, Final residual = 6.94235e-06, No Iterations 6
smoothSolver:  Solving for k, Initial residual = 0.00601561, Final residual = 0.000502038, No Iterations 6
ExecutionTime = 0.215222 s  ClockTime = 0 s

Time = 72s

smoothSolver:  Solving for Ux, Initial residual = 0.00407009, Final residual = 0.000369335, No Iterations 5
smoothSolver:  Solving for Uy, Initial residual = 0.0114181, Final residual = 0.00086192, No Iterations 6
Pressure gradient source: uncorrected Ubar = 1.00032, pressure gradient = 0.986907
GAMG:  Solving for p, Initial residual = 0.00074306, Final residual = 7.28462e-05, No Iterations 8
time step continuity errors : sum local = 5.24446e-06, global = -6.05099e-18, cumulative = -1.2767e-16
Pressure gradient source: uncorrected Ubar = 1.00001, pressure gradient = 1.24948
smoothSolver:  Solving for omega, Initial residual = 8.54556e-05, Final residual = 6.81194e-06, No Iterations 6
smoothSolver:  Solving for k, Initial residual = 0.00599408, Final residual = 0.000502497, No Iterations 6
ExecutionTime = 0.218091 s  ClockTime = 0 s

Time = 73s

smoothSolver:  Solving for Ux, Initial residual = 0.0040315, Final residual = 0.000367103, No Iterations 5
smoothSolver:  Solving for Uy, Initial residual = 0.0113361, Final residual = 0.000863551, No Iterations 6
Pressure gradient source: uncorrected Ubar = 1.00032, pressure gradient = 0.969889
GAMG:  Solving for p, Initial residual = 0.000590194, Final residual = 5.30614e-05, No Iterations 8
time step continuity errors : sum local = 3.89372e-06, global = -1.14972e-17, cumulative = -1.39167e-16
Pressure gradient source: uncorrected Ubar = 1.00001, pressure gradient = 1.24068
smoothSolver:  Solving for omega, Initial residual = 8.41097e-05, Final residual = 6.73304e-06, No Iterations 6
smoothSolver:  Solving for k, Initial residual = 0.0059556, Final residual = 0.00049581, No Iterations 6
ExecutionTime = 0.220869 s  ClockTime = 0 s

Time = 74s

smoothSolver:  Solving for Ux, Initial residual = 0.00399437, Final residual = 0.000365016, No Iterations 5
smoothSolver:  Solving for Uy, Initial residual = 0.0107663, Final residual = 0.000825145, No Iterations 6
Pressure gradient source: uncorrected Ubar = 1.00033, pressure gradient = 0.95456
GAMG:  Solving for p, Initial residual = 0.00055838, Final residual = 4.57027e-05, No Iterations 8
time step continuity errors : sum local = 3.32875e-06, global = 2.58582e-17, cumulative = -1.13309e-16
Pressure gradient source: uncorrected Ubar = 1.00001, pressure gradient = 1.23116
smoothSolver:  Solving for omega, Initial residual = 8.27044e-05, Final residual = 9.9829e-06, No Iterations 5
smoothSolver:  Solving for k, Initial residual = 0.00592325, Final residual = 0.000495882, No Iterations 6
ExecutionTime = 0.223608 s  ClockTime = 0 s

Time = 75s

smoothSolver:  Solving for Ux, Initial residual = 0.00396215, Final residual = 0.000363031, No Iterations 5
smoothSolver:  Solving for Uy, Initial residual = 0.0106068, Final residual = 0.000812827, No Iterations 6
Pressure gradient source: uncorrected Ubar = 1.00033, pressure gradient = 0.9313
GAMG:  Solving for p, Initial residual = 0.00054635, Final residual = 4.84754e-05, No Iterations 10
time step continuity errors : sum local = 3.39493e-06, global = 1.92865e-17, cumulative = -9.40224e-17
Pressure gradient source: uncorrected Ubar = 1.00001, pressure gradient = 1.21993
smoothSolver:  Solving for omega, Initial residual = 8.15902e-05, Final residual = 9.80297e-06, No Iterations 5
smoothSolver:  Solving for k, Initial residual = 0.00590942, Final residual = 0.00049467, No Iterations 6
ExecutionTime = 0.226436 s  ClockTime = 0 s

Time = 76s

smoothSolver:  Solving for Ux, Initial residual = 0.00393024, Final residual = 0.000361122, No Iterations 5
smoothSolver:  Solving for Uy, Initial residual = 0.0106492, Final residual = 0.0008253, No Iterations 6
Pressure gradient source: uncorrected Ubar = 1.00034, pressure gradient = 0.913483
GAMG:  Solving for p, Initial residual = 0.000495501, Final residual = 4.20998e-05, No Iterations 12
time step continuity errors : sum local = 2.93221e-06, global = -1.70254e-19, cumulative = -9.41927e-17
Pressure gradient source: uncorrected Ubar = 1.00001, pressure gradient = 1.20793
smoothSolver:  Solving for omega, Initial residual = 8.0586e-05, Final residual = 9.71785e-06, No Iterations 5
smoothSolver:  Solving for k, Initial residual = 0.00588779, Final residual = 0.000495161, No Iterations 6
ExecutionTime = 0.229381 s  ClockTime = 0 s

Time = 77s

smoothSolver:  Solving for Ux, Initial residual = 0.00389939, Final residual = 0.000359291, No Iterations 5
smoothSolver:  Solving for Uy, Initial residual = 0.0106186, Final residual = 0.00083256, No Iterations 6
Pressure gradient source: uncorrected Ubar = 1.00034, pressure gradient = 0.894202
GAMG:  Solving for p, Initial residual = 0.000490722, Final residual = 4.32351e-05, No Iterations 12
time step continuity errors : sum local = 2.97819e-06, global = 3.66045e-18, cumulative = -9.05322e-17
Pressure gradient source: uncorrected Ubar = 1.00001, pressure gradient = 1.19506
smoothSolver:  Solving for omega, Initial residual = 7.9429e-05, Final residual = 9.54958e-06, No Iterations 5
smoothSolver:  Solving for k, Initial residual = 0.00585246, Final residual = 0.000490605, No Iterations 6
ExecutionTime = 0.232304 s  ClockTime = 0 s

Time = 78s

smoothSolver:  Solving for Ux, Initial residual = 0.00386912, Final residual = 0.000357622, No Iterations 5
smoothSolver:  Solving for Uy, Initial residual = 0.010794, Final residual = 0.000858847, No Iterations 6
Pressure gradient source: uncorrected Ubar = 1.00034, pressure gradient = 0.876649
GAMG:  Solving for p, Initial residual = 0.000504248, Final residual = 4.51627e-05, No Iterations 14
time step continuity errors : sum local = 3.2689e-06, global = 1.36421e-17, cumulative = -7.68901e-17
Pressure gradient source: uncorrected Ubar = 1.00001, pressure gradient = 1.18165
smoothSolver:  Solving for omega, Initial residual = 7.83674e-05, Final residual = 9.34967e-06, No Iterations 5
smoothSolver:  Solving for k, Initial residual = 0.00582463, Final residual = 0.000490185, No Iterations 6
ExecutionTime = 0.23534 s  ClockTime = 0 s

Time = 79s

smoothSolver:  Solving for Ux, Initial residual = 0.00383984, Final residual = 0.000356228, No Iterations 5
smoothSolver:  Solving for Uy, Initial residual = 0.0109894, Final residual = 0.0008643, No Iterations 6
Pressure gradient source: uncorrected Ubar = 1.00033, pressure gradient = 0.859141
GAMG:  Solving for p, Initial residual = 0.00070838, Final residual = 6.46204e-05, No Iterations 8
time step continuity errors : sum local = 4.54582e-06, global = 1.34564e-17, cumulative = -6.34337e-17
Pressure gradient source: uncorrected Ubar = 1.00001, pressure gradient = 1.16776
smoothSolver:  Solving for omega, Initial residual = 7.73688e-05, Final residual = 9.28201e-06, No Iterations 5
smoothSolver:  Solving for k, Initial residual = 0.00579458, Final residual = 0.00048728, No Iterations 6
ExecutionTime = 0.23812 s  ClockTime = 0 s

Time = 80s

smoothSolver:  Solving for Ux, Initial residual = 0.00381237, Final residual = 0.000354749, No Iterations 5
smoothSolver:  Solving for Uy, Initial residual = 0.0101619, Final residual = 0.000801749, No Iterations 6
Pressure gradient source: uncorrected Ubar = 1.00033, pressure gradient = 0.839742
GAMG:  Solving for p, Initial residual = 0.000491833, Final residual = 4.72765e-05, No Iterations 10
time step continuity errors : sum local = 3.21653e-06, global = 3.14885e-19, cumulative = -6.31188e-17
Pressure gradient source: uncorrected Ubar = 1.00001, pressure gradient = 1.15321
smoothSolver:  Solving for omega, Initial residual = 7.64272e-05, Final residual = 9.16987e-06, No Iterations 5
smoothSolver:  Solving for k, Initial residual = 0.00577756, Final residual = 0.000487686, No Iterations 6
ExecutionTime = 0.240943 s  ClockTime = 0 s

Time = 81s

smoothSolver:  Solving for Ux, Initial residual = 0.00378724, Final residual = 0.000353346, No Iterations 5
smoothSolver:  Solving for Uy, Initial residual = 0.00968945, Final residual = 0.000779602, No Iterations 6
Pressure gradient source: uncorrected Ubar = 1.00034, pressure gradient = 0.816884
GAMG:  Solving for p, Initial residual = 0.000518032, Final residual = 5.05668e-05, No Iterations 8
time step continuity errors : sum local = 2.9099e-06, global = 2.19299e-17, cumulative = -4.11889e-17
Pressure gradient source: uncorrected Ubar = 1.00002, pressure gradient = 1.13761
smoothSolver:  Solving for omega, Initial residual = 7.54074e-05, Final residual = 9.04046e-06, No Iterations 5
smoothSolver:  Solving for k, Initial residual = 0.00574238, Final residual = 0.000483021, No Iterations 6
ExecutionTime = 0.243711 s  ClockTime = 0 s

Time = 82s

smoothSolver:  Solving for Ux, Initial residual = 0.00376324, Final residual = 0.000352053, No Iterations 5
smoothSolver:  Solving for Uy, Initial residual = 0.00995042, Final residual = 0.000802492, No Iterations 6
Pressure gradient source: uncorrected Ubar = 1.00033, pressure gradient = 0.797347
GAMG:  Solving for p, Initial residual = 0.000460574, Final residual = 3.81056e-05, No Iterations 12
time step continuity errors : sum local = 2.30772e-06, global = -1.73176e-17, cumulative = -5.85065e-17
Pressure gradient source: uncorrected Ubar = 1.00002, pressure gradient = 1.12153
smoothSolver:  Solving for omega, Initial residual = 7.4478e-05, Final residual = 8.91902e-06, No Iterations 5
smoothSolver:  Solving for k, Initial residual = 0.00571689, Final residual = 0.000483982, No Iterations 6
ExecutionTime = 0.246651 s  ClockTime = 0 s

Time = 83s

smoothSolver:  Solving for Ux, Initial residual = 0.003739, Final residual = 0.000350772, No Iterations 5
smoothSolver:  Solving for Uy, Initial residual = 0.0102989, Final residual = 0.00083491, No Iterations 6
Pressure gradient source: uncorrected Ubar = 1.00033, pressure gradient = 0.779434
GAMG:  Solving for p, Initial residual = 0.000475738, Final residual = 3.96663e-05, No Iterations 14
time step continuity errors : sum local = 2.61908e-06, global = 7.65061e-18, cumulative = -5.08559e-17
Pressure gradient source: uncorrected Ubar = 1.00002, pressure gradient = 1.10526
smoothSolver:  Solving for omega, Initial residual = 7.36398e-05, Final residual = 8.8024e-06, No Iterations 5
smoothSolver:  Solving for k, Initial residual = 0.00568728, Final residual = 0.000480413, No Iterations 6
ExecutionTime = 0.249687 s  ClockTime = 0 s

Time = 84s

smoothSolver:  Solving for Ux, Initial residual = 0.00371479, Final residual = 0.000349574, No Iterations 5
smoothSolver:  Solving for Uy, Initial residual = 0.0105932, Final residual = 0.000857998, No Iterations 6
Pressure gradient source: uncorrected Ubar = 1.00033, pressure gradient = 0.759906
GAMG:  Solving for p, Initial residual = 0.000536513, Final residual = 5.01891e-05, No Iterations 12
time step continuity errors : sum local = 3.26186e-06, global = 1.96751e-17, cumulative = -3.11808e-17
Pressure gradient source: uncorrected Ubar = 1.00002, pressure gradient = 1.08859
smoothSolver:  Solving for omega, Initial residual = 7.28509e-05, Final residual = 8.73071e-06, No Iterations 5
smoothSolver:  Solving for k, Initial residual = 0.00565418, Final residual = 0.000477981, No Iterations 6
ExecutionTime = 0.252604 s  ClockTime = 0 s

Time = 85s

smoothSolver:  Solving for Ux, Initial residual = 0.00369193, Final residual = 0.00034852, No Iterations 5
smoothSolver:  Solving for Uy, Initial residual = 0.0103326, Final residual = 0.000838627, No Iterations 6
Pressure gradient source: uncorrected Ubar = 1.00033, pressure gradient = 0.738639
GAMG:  Solving for p, Initial residual = 0.000473933, Final residual = 4.48002e-05, No Iterations 12
time step continuity errors : sum local = 2.85384e-06, global = 1.0287e-17, cumulative = -2.08938e-17
Pressure gradient source: uncorrected Ubar = 1.00002, pressure gradient = 1.07133
smoothSolver:  Solving for omega, Initial residual = 7.20501e-05, Final residual = 8.57056e-06, No Iterations 5
smoothSolver:  Solving for k, Initial residual = 0.00562392, Final residual = 0.000474841, No Iterations 6
ExecutionTime = 0.255554 s  ClockTime = 0 s

Time = 86s

smoothSolver:  Solving for Ux, Initial residual = 0.00367092, Final residual = 0.00034751, No Iterations 5
smoothSolver:  Solving for Uy, Initial residual = 0.010232, Final residual = 0.000830582, No Iterations 6
Pressure gradient source: uncorrected Ubar = 1.00033, pressure gradient = 0.716604
GAMG:  Solving for p, Initial residual = 0.000451925, Final residual = 3.94557e-05, No Iterations 12
time step continuity errors : sum local = 2.50483e-06, global = -3.8828e-18, cumulative = -2.47766e-17
Pressure gradient source: uncorrected Ubar = 1.00002, pressure gradient = 1.05347
smoothSolver:  Solving for omega, Initial residual = 7.13019e-05, Final residual = 8.51704e-06, No Iterations 5
smoothSolver:  Solving for k, Initial residual = 0.00560093, Final residual = 0.000475764, No Iterations 6
ExecutionTime = 0.258489 s  ClockTime = 0 s

Time = 87s

smoothSolver:  Solving for Ux, Initial residual = 0.00365134, Final residual = 0.00034655, No Iterations 5
smoothSolver:  Solving for Uy, Initial residual = 0.00987906, Final residual = 0.000811238, No Iterations 6
Pressure gradient source: uncorrected Ubar = 1.00032, pressure gradient = 0.696348
GAMG:  Solving for p, Initial residual = 0.00049057, Final residual = 4.16203e-05, No Iterations 12
time step continuity errors : sum local = 2.54979e-06, global = -1.88105e-18, cumulative = -2.66577e-17
Pressure gradient source: uncorrected Ubar = 1.00002, pressure gradient = 1.0353
smoothSolver:  Solving for omega, Initial residual = 7.05626e-05, Final residual = 8.39332e-06, No Iterations 5
smoothSolver:  Solving for k, Initial residual = 0.00556894, Final residual = 0.000472503, No Iterations 6
ExecutionTime = 0.261425 s  ClockTime = 0 s

Time = 88s

smoothSolver:  Solving for Ux, Initial residual = 0.00363159, Final residual = 0.000345632, No Iterations 5
smoothSolver:  Solving for Uy, Initial residual = 0.00980985, Final residual = 0.000804314, No Iterations 6
Pressure gradient source: uncorrected Ubar = 1.00032, pressure gradient = 0.679189
GAMG:  Solving for p, Initial residual = 0.000451637, Final residual = 4.06593e-05, No Iterations 12
time step continuity errors : sum local = 2.33592e-06, global = 3.25239e-18, cumulative = -2.34053e-17
Pressure gradient source: uncorrected Ubar = 1.00002, pressure gradient = 1.0173
smoothSolver:  Solving for omega, Initial residual = 6.9931e-05, Final residual = 8.34769e-06, No Iterations 5
smoothSolver:  Solving for k, Initial residual = 0.00554126, Final residual = 0.000470906, No Iterations 6
ExecutionTime = 0.264345 s  ClockTime = 0 s

Time = 89s

smoothSolver:  Solving for Ux, Initial residual = 0.00361239, Final residual = 0.000344738, No Iterations 5
smoothSolver:  Solving for Uy, Initial residual = 0.00997971, Final residual = 0.000818806, No Iterations 6
Pressure gradient source: uncorrected Ubar = 1.00032, pressure gradient = 0.658289
GAMG:  Solving for p, Initial residual = 0.000476786, Final residual = 4.7146e-05, No Iterations 10
time step continuity errors : sum local = 2.55307e-06, global = -1.45645e-17, cumulative = -3.79698e-17
[...]
smoothSolver:  Solving for omega, Initial residual = 5.68565e-06, Final residual = 5.68565e-06, No Iterations 0
smoothSolver:  Solving for k, Initial residual = 1.77537e-05, Final residual = 6.44209e-06, No Iterations 2
ExecutionTime = 9.15198 s  ClockTime = 9 s

Time = 3394s

smoothSolver:  Solving for Ux, Initial residual = 1.71149e-06, Final residual = 1.71149e-06, No Iterations 0
smoothSolver:  Solving for Uy, Initial residual = 0.000107827, Final residual = 1.05727e-05, No Iterations 3
Pressure gradient source: uncorrected Ubar = 1, pressure gradient = 0.00454274
GAMG:  Solving for p, Initial residual = 3.11427e-05, Final residual = 2.68584e-06, No Iterations 7
time step continuity errors : sum local = 5.88462e-11, global = -9.73313e-18, cumulative = 2.6293e-16
Pressure gradient source: uncorrected Ubar = 1, pressure gradient = 0.0045427
smoothSolver:  Solving for omega, Initial residual = 5.68565e-06, Final residual = 5.68565e-06, No Iterations 0
smoothSolver:  Solving for k, Initial residual = 1.77254e-05, Final residual = 6.43173e-06, No Iterations 2
ExecutionTime = 9.15451 s  ClockTime = 9 s

Time = 3395s

smoothSolver:  Solving for Ux, Initial residual = 1.723e-06, Final residual = 1.723e-06, No Iterations 0
smoothSolver:  Solving for Uy, Initial residual = 0.000107718, Final residual = 1.05011e-05, No Iterations 3
Pressure gradient source: uncorrected Ubar = 1, pressure gradient = 0.0045427
GAMG:  Solving for p, Initial residual = 3.11698e-05, Final residual = 2.69372e-06, No Iterations 7
time step continuity errors : sum local = 5.90068e-11, global = -9.34104e-18, cumulative = 2.53589e-16
Pressure gradient source: uncorrected Ubar = 1, pressure gradient = 0.00454266
smoothSolver:  Solving for omega, Initial residual = 5.68566e-06, Final residual = 5.68566e-06, No Iterations 0
smoothSolver:  Solving for k, Initial residual = 1.76877e-05, Final residual = 6.41817e-06, No Iterations 2
ExecutionTime = 9.15708 s  ClockTime = 9 s

Time = 3396s

smoothSolver:  Solving for Ux, Initial residual = 1.73469e-06, Final residual = 1.73469e-06, No Iterations 0
smoothSolver:  Solving for Uy, Initial residual = 0.00010707, Final residual = 1.04489e-05, No Iterations 3
Pressure gradient source: uncorrected Ubar = 1, pressure gradient = 0.00454266
GAMG:  Solving for p, Initial residual = 3.10699e-05, Final residual = 2.67231e-06, No Iterations 7
time step continuity errors : sum local = 5.85604e-11, global = 2.86453e-18, cumulative = 2.56453e-16
Pressure gradient source: uncorrected Ubar = 1, pressure gradient = 0.00454261
smoothSolver:  Solving for omega, Initial residual = 5.68566e-06, Final residual = 5.68566e-06, No Iterations 0
smoothSolver:  Solving for k, Initial residual = 1.7659e-05, Final residual = 6.40766e-06, No Iterations 2
ExecutionTime = 9.15962 s  ClockTime = 9 s

Time = 3397s

smoothSolver:  Solving for Ux, Initial residual = 1.74634e-06, Final residual = 1.74634e-06, No Iterations 0
smoothSolver:  Solving for Uy, Initial residual = 0.000106982, Final residual = 1.03784e-05, No Iterations 3
Pressure gradient source: uncorrected Ubar = 1, pressure gradient = 0.00454261
GAMG:  Solving for p, Initial residual = 3.10971e-05, Final residual = 2.6799e-06, No Iterations 7
time step continuity errors : sum local = 5.87148e-11, global = -6.61351e-18, cumulative = 2.4984e-16
Pressure gradient source: uncorrected Ubar = 1, pressure gradient = 0.00454257
smoothSolver:  Solving for omega, Initial residual = 5.68566e-06, Final residual = 5.68566e-06, No Iterations 0
smoothSolver:  Solving for k, Initial residual = 1.7621e-05, Final residual = 6.39401e-06, No Iterations 2
ExecutionTime = 9.16213 s  ClockTime = 9 s

Time = 3398s

smoothSolver:  Solving for Ux, Initial residual = 1.75794e-06, Final residual = 1.75794e-06, No Iterations 0
smoothSolver:  Solving for Uy, Initial residual = 0.000106348, Final residual = 1.03265e-05, No Iterations 3
Pressure gradient source: uncorrected Ubar = 1, pressure gradient = 0.00454257
GAMG:  Solving for p, Initial residual = 3.09987e-05, Final residual = 2.65852e-06, No Iterations 7
time step continuity errors : sum local = 5.82688e-11, global = -4.68949e-18, cumulative = 2.4515e-16
Pressure gradient source: uncorrected Ubar = 1, pressure gradient = 0.00454253
smoothSolver:  Solving for omega, Initial residual = 5.68566e-06, Final residual = 5.68566e-06, No Iterations 0
smoothSolver:  Solving for k, Initial residual = 1.75919e-05, Final residual = 6.38336e-06, No Iterations 2
ExecutionTime = 9.16465 s  ClockTime = 9 s

Time = 3399s

smoothSolver:  Solving for Ux, Initial residual = 1.76958e-06, Final residual = 1.76958e-06, No Iterations 0
smoothSolver:  Solving for Uy, Initial residual = 0.00010627, Final residual = 1.02565e-05, No Iterations 3
Pressure gradient source: uncorrected Ubar = 1, pressure gradient = 0.00454253
GAMG:  Solving for p, Initial residual = 3.10251e-05, Final residual = 2.6657e-06, No Iterations 7
time step continuity errors : sum local = 5.84146e-11, global = 4.12858e-18, cumulative = 2.49279e-16
Pressure gradient source: uncorrected Ubar = 1, pressure gradient = 0.00454249
smoothSolver:  Solving for omega, Initial residual = 5.68566e-06, Final residual = 5.68566e-06, No Iterations 0
smoothSolver:  Solving for k, Initial residual = 1.75537e-05, Final residual = 6.36962e-06, No Iterations 2
ExecutionTime = 9.16722 s  ClockTime = 9 s

Time = 3400s

smoothSolver:  Solving for Ux, Initial residual = 1.78145e-06, Final residual = 1.78145e-06, No Iterations 0
smoothSolver:  Solving for Uy, Initial residual = 0.000105641, Final residual = 1.02043e-05, No Iterations 3
Pressure gradient source: uncorrected Ubar = 1, pressure gradient = 0.00454249
GAMG:  Solving for p, Initial residual = 3.09272e-05, Final residual = 2.64427e-06, No Iterations 7
time step continuity errors : sum local = 5.79674e-11, global = 7.98788e-19, cumulative = 2.50078e-16
Pressure gradient source: uncorrected Ubar = 1, pressure gradient = 0.00454244
smoothSolver:  Solving for omega, Initial residual = 5.68566e-06, Final residual = 5.68566e-06, No Iterations 0
smoothSolver:  Solving for k, Initial residual = 1.75242e-05, Final residual = 6.35883e-06, No Iterations 2
ExecutionTime = 9.16974 s  ClockTime = 9 s

Time = 3401s

smoothSolver:  Solving for Ux, Initial residual = 1.79326e-06, Final residual = 1.79326e-06, No Iterations 0
smoothSolver:  Solving for Uy, Initial residual = 0.000105559, Final residual = 1.01345e-05, No Iterations 3
Pressure gradient source: uncorrected Ubar = 1, pressure gradient = 0.00454244
GAMG:  Solving for p, Initial residual = 3.09531e-05, Final residual = 2.651e-06, No Iterations 7
time step continuity errors : sum local = 5.81038e-11, global = 3.45332e-18, cumulative = 2.53531e-16
Pressure gradient source: uncorrected Ubar = 1, pressure gradient = 0.0045424
smoothSolver:  Solving for omega, Initial residual = 5.68567e-06, Final residual = 5.68567e-06, No Iterations 0
smoothSolver:  Solving for k, Initial residual = 1.74857e-05, Final residual = 6.34499e-06, No Iterations 2
ExecutionTime = 9.17234 s  ClockTime = 9 s

Time = 3402s

smoothSolver:  Solving for Ux, Initial residual = 1.80503e-06, Final residual = 1.80503e-06, No Iterations 0
smoothSolver:  Solving for Uy, Initial residual = 0.000104926, Final residual = 1.00821e-05, No Iterations 3
Pressure gradient source: uncorrected Ubar = 1, pressure gradient = 0.0045424
GAMG:  Solving for p, Initial residual = 3.08563e-05, Final residual = 2.62966e-06, No Iterations 7
time step continuity errors : sum local = 5.76581e-11, global = 1.70835e-19, cumulative = 2.53702e-16
Pressure gradient source: uncorrected Ubar = 1, pressure gradient = 0.00454236
smoothSolver:  Solving for omega, Initial residual = 5.68567e-06, Final residual = 5.68567e-06, No Iterations 0
smoothSolver:  Solving for k, Initial residual = 1.74558e-05, Final residual = 6.33406e-06, No Iterations 2
ExecutionTime = 9.17486 s  ClockTime = 9 s

Time = 3403s

smoothSolver:  Solving for Ux, Initial residual = 1.81696e-06, Final residual = 1.81696e-06, No Iterations 0
smoothSolver:  Solving for Uy, Initial residual = 0.000104842, Final residual = 1.00123e-05, No Iterations 3
Pressure gradient source: uncorrected Ubar = 1, pressure gradient = 0.00454236
GAMG:  Solving for p, Initial residual = 3.08792e-05, Final residual = 2.63605e-06, No Iterations 7
time step continuity errors : sum local = 5.77869e-11, global = -1.03884e-18, cumulative = 2.52663e-16
Pressure gradient source: uncorrected Ubar = 1, pressure gradient = 0.00454232
smoothSolver:  Solving for omega, Initial residual = 5.68567e-06, Final residual = 5.68567e-06, No Iterations 0
smoothSolver:  Solving for k, Initial residual = 1.74171e-05, Final residual = 6.32014e-06, No Iterations 2
ExecutionTime = 9.17741 s  ClockTime = 9 s

Time = 3404s

smoothSolver:  Solving for Ux, Initial residual = 1.82895e-06, Final residual = 1.82895e-06, No Iterations 0
smoothSolver:  Solving for Uy, Initial residual = 0.000104205, Final residual = 9.95946e-06, No Iterations 3
Pressure gradient source: uncorrected Ubar = 1, pressure gradient = 0.00454232
GAMG:  Solving for p, Initial residual = 3.07811e-05, Final residual = 2.6147e-06, No Iterations 7
time step continuity errors : sum local = 5.7341e-11, global = 1.43428e-19, cumulative = 2.52806e-16
Pressure gradient source: uncorrected Ubar = 1, pressure gradient = 0.00454228
smoothSolver:  Solving for omega, Initial residual = 5.68567e-06, Final residual = 5.68567e-06, No Iterations 0
smoothSolver:  Solving for k, Initial residual = 1.73868e-05, Final residual = 6.30906e-06, No Iterations 2
ExecutionTime = 9.17995 s  ClockTime = 9 s

Time = 3405s

smoothSolver:  Solving for Ux, Initial residual = 1.84089e-06, Final residual = 1.84089e-06, No Iterations 0
smoothSolver:  Solving for Uy, Initial residual = 0.000104114, Final residual = 9.88985e-06, No Iterations 3
Pressure gradient source: uncorrected Ubar = 1, pressure gradient = 0.00454228
GAMG:  Solving for p, Initial residual = 3.08007e-05, Final residual = 2.62072e-06, No Iterations 7
time step continuity errors : sum local = 5.74618e-11, global = -4.99265e-18, cumulative = 2.47814e-16
Pressure gradient source: uncorrected Ubar = 1, pressure gradient = 0.00454223
smoothSolver:  Solving for omega, Initial residual = 5.68567e-06, Final residual = 5.68567e-06, No Iterations 0
smoothSolver:  Solving for k, Initial residual = 1.73479e-05, Final residual = 6.29505e-06, No Iterations 2
ExecutionTime = 9.18247 s  ClockTime = 9 s

Time = 3406s

smoothSolver:  Solving for Ux, Initial residual = 1.85298e-06, Final residual = 1.85298e-06, No Iterations 0
smoothSolver:  Solving for Uy, Initial residual = 0.000103471, Final residual = 9.83839e-06, No Iterations 3
Pressure gradient source: uncorrected Ubar = 1, pressure gradient = 0.00454223
GAMG:  Solving for p, Initial residual = 3.07015e-05, Final residual = 2.59947e-06, No Iterations 7
time step continuity errors : sum local = 5.70174e-11, global = 5.41183e-18, cumulative = 2.53225e-16
Pressure gradient source: uncorrected Ubar = 1, pressure gradient = 0.00454219
smoothSolver:  Solving for omega, Initial residual = 5.68567e-06, Final residual = 5.68567e-06, No Iterations 0
smoothSolver:  Solving for k, Initial residual = 1.73172e-05, Final residual = 6.28384e-06, No Iterations 2
ExecutionTime = 9.185 s  ClockTime = 9 s

Time = 3407s

smoothSolver:  Solving for Ux, Initial residual = 1.86533e-06, Final residual = 1.86533e-06, No Iterations 0
smoothSolver:  Solving for Uy, Initial residual = 0.000103375, Final residual = 9.76967e-06, No Iterations 3
Pressure gradient source: uncorrected Ubar = 1, pressure gradient = 0.00454219
GAMG:  Solving for p, Initial residual = 3.07183e-05, Final residual = 2.60517e-06, No Iterations 7
time step continuity errors : sum local = 5.71313e-11, global = 1.52149e-18, cumulative = 2.54747e-16
Pressure gradient source: uncorrected Ubar = 1, pressure gradient = 0.00454215
smoothSolver:  Solving for omega, Initial residual = 5.68567e-06, Final residual = 5.68567e-06, No Iterations 0
smoothSolver:  Solving for k, Initial residual = 1.7278e-05, Final residual = 6.26974e-06, No Iterations 2
ExecutionTime = 9.18754 s  ClockTime = 9 s

Time = 3408s

smoothSolver:  Solving for Ux, Initial residual = 1.87776e-06, Final residual = 1.87776e-06, No Iterations 0
smoothSolver:  Solving for Uy, Initial residual = 0.000102733, Final residual = 9.71838e-06, No Iterations 3
Pressure gradient source: uncorrected Ubar = 1, pressure gradient = 0.00454215
GAMG:  Solving for p, Initial residual = 3.06186e-05, Final residual = 2.58411e-06, No Iterations 7
time step continuity errors : sum local = 5.66906e-11, global = -4.99518e-19, cumulative = 2.54247e-16
Pressure gradient source: uncorrected Ubar = 1, pressure gradient = 0.00454211
smoothSolver:  Solving for omega, Initial residual = 5.68568e-06, Final residual = 5.68568e-06, No Iterations 0
smoothSolver:  Solving for k, Initial residual = 1.7247e-05, Final residual = 6.25839e-06, No Iterations 2
ExecutionTime = 9.19007 s  ClockTime = 9 s

Time = 3409s

smoothSolver:  Solving for Ux, Initial residual = 1.89027e-06, Final residual = 1.89027e-06, No Iterations 0
smoothSolver:  Solving for Uy, Initial residual = 0.000102636, Final residual = 9.65074e-06, No Iterations 3
Pressure gradient source: uncorrected Ubar = 1, pressure gradient = 0.00454211
GAMG:  Solving for p, Initial residual = 3.06333e-05, Final residual = 2.58961e-06, No Iterations 7
time step continuity errors : sum local = 5.68003e-11, global = 3.09124e-19, cumulative = 2.54557e-16
Pressure gradient source: uncorrected Ubar = 1, pressure gradient = 0.00454207
smoothSolver:  Solving for omega, Initial residual = 5.68568e-06, Final residual = 5.68568e-06, No Iterations 0
smoothSolver:  Solving for k, Initial residual = 1.72076e-05, Final residual = 6.24421e-06, No Iterations 2
ExecutionTime = 9.19261 s  ClockTime = 9 s

Time = 3410s

smoothSolver:  Solving for Ux, Initial residual = 1.9029e-06, Final residual = 1.9029e-06, No Iterations 0
smoothSolver:  Solving for Uy, Initial residual = 0.000101998, Final residual = 9.60091e-06, No Iterations 3
Pressure gradient source: uncorrected Ubar = 1, pressure gradient = 0.00454207
GAMG:  Solving for p, Initial residual = 3.05337e-05, Final residual = 2.56875e-06, No Iterations 7
time step continuity errors : sum local = 5.63637e-11, global = 2.83386e-18, cumulative = 2.5739e-16
Pressure gradient source: uncorrected Ubar = 1, pressure gradient = 0.00454203
smoothSolver:  Solving for omega, Initial residual = 5.68568e-06, Final residual = 5.68568e-06, No Iterations 0
smoothSolver:  Solving for k, Initial residual = 1.71762e-05, Final residual = 6.23272e-06, No Iterations 2
ExecutionTime = 9.19514 s  ClockTime = 9 s

Time = 3411s

smoothSolver:  Solving for Ux, Initial residual = 1.91581e-06, Final residual = 1.91581e-06, No Iterations 0
smoothSolver:  Solving for Uy, Initial residual = 0.0001019, Final residual = 9.5343e-06, No Iterations 3
Pressure gradient source: uncorrected Ubar = 1, pressure gradient = 0.00454203
GAMG:  Solving for p, Initial residual = 3.05467e-05, Final residual = 2.57408e-06, No Iterations 7
time step continuity errors : sum local = 5.64698e-11, global = 3.10215e-18, cumulative = 2.60493e-16
Pressure gradient source: uncorrected Ubar = 1, pressure gradient = 0.00454199
smoothSolver:  Solving for omega, Initial residual = 5.68568e-06, Final residual = 5.68568e-06, No Iterations 0
smoothSolver:  Solving for k, Initial residual = 1.71365e-05, Final residual = 6.21845e-06, No Iterations 2
ExecutionTime = 9.19768 s  ClockTime = 9 s

Time = 3412s

smoothSolver:  Solving for Ux, Initial residual = 1.92873e-06, Final residual = 1.92873e-06, No Iterations 0
smoothSolver:  Solving for Uy, Initial residual = 0.000101253, Final residual = 9.48152e-06, No Iterations 3
Pressure gradient source: uncorrected Ubar = 1, pressure gradient = 0.00454199
GAMG:  Solving for p, Initial residual = 3.04505e-05, Final residual = 2.55294e-06, No Iterations 7
time step continuity errors : sum local = 5.60272e-11, global = 1.34991e-18, cumulative = 2.61842e-16
Pressure gradient source: uncorrected Ubar = 1, pressure gradient = 0.00454194
smoothSolver:  Solving for omega, Initial residual = 5.68568e-06, Final residual = 5.68568e-06, No Iterations 0
smoothSolver:  Solving for k, Initial residual = 1.71048e-05, Final residual = 6.20683e-06, No Iterations 2
ExecutionTime = 9.20021 s  ClockTime = 9 s

Time = 3413s

smoothSolver:  Solving for Ux, Initial residual = 1.9416e-06, Final residual = 1.9416e-06, No Iterations 0
smoothSolver:  Solving for Uy, Initial residual = 0.000101126, Final residual = 9.41066e-06, No Iterations 3
Pressure gradient source: uncorrected Ubar = 1, pressure gradient = 0.00454194
GAMG:  Solving for p, Initial residual = 3.04679e-05, Final residual = 2.55692e-06, No Iterations 7
time step continuity errors : sum local = 5.61033e-11, global = -3.03223e-18, cumulative = 2.5881e-16
Pressure gradient source: uncorrected Ubar = 1, pressure gradient = 0.0045419
smoothSolver:  Solving for omega, Initial residual = 5.68568e-06, Final residual = 5.68568e-06, No Iterations 0
smoothSolver:  Solving for k, Initial residual = 1.70649e-05, Final residual = 6.19248e-06, No Iterations 2
ExecutionTime = 9.20276 s  ClockTime = 9 s

Time = 3414s

smoothSolver:  Solving for Ux, Initial residual = 1.95441e-06, Final residual = 1.95441e-06, No Iterations 0
smoothSolver:  Solving for Uy, Initial residual = 0.00010047, Final residual = 9.35838e-06, No Iterations 3
Pressure gradient source: uncorrected Ubar = 1, pressure gradient = 0.0045419
GAMG:  Solving for p, Initial residual = 3.0377e-05, Final residual = 2.53505e-06, No Iterations 7
time step continuity errors : sum local = 5.56431e-11, global = -1.86129e-18, cumulative = 2.56949e-16
Pressure gradient source: uncorrected Ubar = 1, pressure gradient = 0.00454186
smoothSolver:  Solving for omega, Initial residual = 5.68568e-06, Final residual = 5.68568e-06, No Iterations 0
smoothSolver:  Solving for k, Initial residual = 1.70327e-05, Final residual = 6.18072e-06, No Iterations 2
ExecutionTime = 9.20529 s  ClockTime = 9 s

Time = 3415s

smoothSolver:  Solving for Ux, Initial residual = 1.96717e-06, Final residual = 1.96717e-06, No Iterations 0
smoothSolver:  Solving for Uy, Initial residual = 0.000100364, Final residual = 9.29219e-06, No Iterations 3
Pressure gradient source: uncorrected Ubar = 1, pressure gradient = 0.00454186
GAMG:  Solving for p, Initial residual = 3.03951e-05, Final residual = 2.53882e-06, No Iterations 7
time step continuity errors : sum local = 5.57134e-11, global = -2.28798e-19, cumulative = 2.5672e-16
Pressure gradient source: uncorrected Ubar = 1, pressure gradient = 0.00454182
smoothSolver:  Solving for omega, Initial residual = 5.68568e-06, Final residual = 5.68568e-06, No Iterations 0
smoothSolver:  Solving for k, Initial residual = 1.69926e-05, Final residual = 6.16629e-06, No Iterations 2
ExecutionTime = 9.20784 s  ClockTime = 9 s

Time = 3416s

smoothSolver:  Solving for Ux, Initial residual = 1.97987e-06, Final residual = 1.97987e-06, No Iterations 0
smoothSolver:  Solving for Uy, Initial residual = 9.97547e-05, Final residual = 9.24677e-06, No Iterations 3
Pressure gradient source: uncorrected Ubar = 1, pressure gradient = 0.00454182
GAMG:  Solving for p, Initial residual = 3.03058e-05, Final residual = 2.5178e-06, No Iterations 7
time step continuity errors : sum local = 5.5271e-11, global = 2.94508e-19, cumulative = 2.57015e-16
Pressure gradient source: uncorrected Ubar = 1, pressure gradient = 0.00454178
smoothSolver:  Solving for omega, Initial residual = 5.68569e-06, Final residual = 5.68569e-06, No Iterations 0
smoothSolver:  Solving for k, Initial residual = 1.69601e-05, Final residual = 6.1544e-06, No Iterations 2
ExecutionTime = 9.21036 s  ClockTime = 9 s


SIMPLE solution converged in 3416 iterations

End

