/*---------------------------------------------------------------------------*\
  =========                 |
  \\      /  F ield         | OpenFOAM: The Open Source CFD Toolbox
   \\    /   O peration     | Website:  https://openfoam.org
    \\  /    A nd           | Version:  10
     \\/     M anipulation  |
\*---------------------------------------------------------------------------*/
Build  : 10-e450dce21ea5
Exec   : blockMesh
Date   : Feb 20 2023
Time   : 14:14:33
Host   : "w530-R9YK46P"
PID    : 18812
I/O    : uncollated
Case   : /home/jdmezazeron/gitDanielMezaZ/turbulenceVisualized/Data/SimulationFiles/K28_Re2378
nProcs : 1
sigFpe : Enabling floating point exception trapping (FOAM_SIGFPE).
fileModificationChecking : Monitoring run-time modified files using timeStampMaster (fileModificationSkew 10)
allowSystemOperations : Allowing user-supplied system call operations

// * * * * * * * * * * * * * * * * * * * * * * * * * * * * * * * * * * * * * //
Create time

Deleting polyMesh directory
    "/home/jdmezazeron/gitDanielMezaZ/turbulenceVisualized/Data/SimulationFiles/K28_Re2378/constant/polyMesh"
Reading "blockMeshDict"

Creating block mesh from
    "system/blockMeshDict"
Creating block edges
No non-planar block faces defined
Creating topology blocks
Creating topology patches

Creating block mesh topology

Check topology

	Basic statistics
		Number of internal faces : 0
		Number of boundary faces : 6
		Number of defined boundary faces : 6
		Number of undefined boundary faces : 0
	Checking patch -> block consistency

Creating block offsets
Creating merge list .

Creating polyMesh from blockMesh
Creating patches
Creating cells
Creating points with scale 1
    Block 0 cell size :
        i : 0.5
        j : 0.00461374 .. 0.018455
        k : 2

Detected cyclic patches; ordering boundary faces

Writing polyMesh
----------------
Mesh Information
----------------
  boundingBox: (-1 0 -1) (1 1 1)
  nPoints: 1010
  nCells: 400
  nFaces: 1704
  nInternalFaces: 696
----------------
Patches
----------------
  patch 0 (start: 696 size: 100) name: inlet
  patch 1 (start: 796 size: 100) name: outlet
  patch 2 (start: 896 size: 4) name: fixedWalls-bottom
  patch 3 (start: 900 size: 4) name: fixedWalls-top
  patch 4 (start: 904 size: 800) name: frontAndBack

End

/*---------------------------------------------------------------------------*\
  =========                 |
  \\      /  F ield         | OpenFOAM: The Open Source CFD Toolbox
   \\    /   O peration     | Website:  https://openfoam.org
    \\  /    A nd           | Version:  10
     \\/     M anipulation  |
\*---------------------------------------------------------------------------*/
Build  : 10-e450dce21ea5
Exec   : simpleFoam
Date   : Feb 20 2023
Time   : 14:14:33
Host   : "w530-R9YK46P"
PID    : 18813
I/O    : uncollated
Case   : /home/jdmezazeron/gitDanielMezaZ/turbulenceVisualized/Data/SimulationFiles/K28_Re2378
nProcs : 1
sigFpe : Enabling floating point exception trapping (FOAM_SIGFPE).
fileModificationChecking : Monitoring run-time modified files using timeStampMaster (fileModificationSkew 10)
allowSystemOperations : Allowing user-supplied system call operations

// * * * * * * * * * * * * * * * * * * * * * * * * * * * * * * * * * * * * * //
Create time

Create mesh for time = 0


SIMPLE: Convergence criteria found
        U: tolerance 0.0001
        p: tolerance 0.01
        omega: tolerance 0.0001

Reading field p

Reading field U

Reading/calculating face flux field phi

Selecting viscosity model Newtonian
Selecting turbulence model type RAS
Selecting RAS turbulence model kOmegaSST
Selecting patchDistMethod meshWave
RAS
{
    RASModel        kOmegaSST;
    turbulence      on;
    printCoeffs     on;
    alphaK1         0.85;
    alphaK2         1;
    alphaOmega1     0.5;
    alphaOmega2     0.856;
    gamma1          0.555556;
    gamma2          0.44;
    beta1           0.075;
    beta2           0.0828;
    betaStar        0.09;
    a1              0.31;
    b1              1;
    c1              10;
    F3              false;
}

No MRF models present

--> FOAM Warning : Creating fvModels from "system/fvOptions" rather than constant/fvModels
No fvModels present
--> FOAM Warning : Creating fvConstraints from "system/fvOptions"

Selecting finite volume constraint type meanVelocityForce
    Name: momentumSource
    - selecting all cells
    - selected 400 cell(s) with volume 4
    Initial pressure gradient = 0


Starting time loop

turbulenceFields stressComponents: storing fields:
    R

Time = 1s

smoothSolver:  Solving for Ux, Initial residual = 0, Final residual = 0, No Iterations 0
smoothSolver:  Solving for Uy, Initial residual = 0, Final residual = 0, No Iterations 0
Pressure gradient source: uncorrected Ubar = 0, pressure gradient = 1234.96
GAMG:  Solving for p, Initial residual = 0.999996, Final residual = 0.0799524, No Iterations 3
time step continuity errors : sum local = 1.01306e-16, global = -1.90688e-18, cumulative = -1.90688e-18
Pressure gradient source: uncorrected Ubar = 0.884653, pressure gradient = 142.45
smoothSolver:  Solving for omega, Initial residual = 0.220995, Final residual = 0.0133528, No Iterations 3
smoothSolver:  Solving for k, Initial residual = 1, Final residual = 0.0615641, No Iterations 3
ExecutionTime = 0.014018 s  ClockTime = 0 s

Time = 2s

smoothSolver:  Solving for Ux, Initial residual = 0.990865, Final residual = 0.0922311, No Iterations 6
smoothSolver:  Solving for Uy, Initial residual = 1, Final residual = 0.0867572, No Iterations 5
Pressure gradient source: uncorrected Ubar = 47.1803, pressure gradient = -1059.96
GAMG:  Solving for p, Initial residual = 1, Final residual = 0.0884922, No Iterations 14
time step continuity errors : sum local = 0.0363508, global = 3.57516e-17, cumulative = 3.38447e-17
Pressure gradient source: uncorrected Ubar = 6.97325, pressure gradient = -13.078
smoothSolver:  Solving for omega, Initial residual = 0.191511, Final residual = 0.00123707, No Iterations 1
smoothSolver:  Solving for k, Initial residual = 0.966052, Final residual = 0.0487915, No Iterations 1
ExecutionTime = 0.017072 s  ClockTime = 0 s

Time = 3s

smoothSolver:  Solving for Ux, Initial residual = 0.453867, Final residual = 0.0382217, No Iterations 6
smoothSolver:  Solving for Uy, Initial residual = 0.578327, Final residual = 0.037441, No Iterations 2
Pressure gradient source: uncorrected Ubar = -1.48244, pressure gradient = 98.6558
GAMG:  Solving for p, Initial residual = 0.212003, Final residual = 0.0186144, No Iterations 6
time step continuity errors : sum local = 0.0150573, global = -1.79842e-17, cumulative = 1.58605e-17
Pressure gradient source: uncorrected Ubar = 0.671275, pressure gradient = 1.71778
smoothSolver:  Solving for omega, Initial residual = 0.0102084, Final residual = 0.000428863, No Iterations 1
smoothSolver:  Solving for k, Initial residual = 0.438657, Final residual = 0.0209575, No Iterations 2
ExecutionTime = 0.019612 s  ClockTime = 0 s

Time = 4s

smoothSolver:  Solving for Ux, Initial residual = 0.118724, Final residual = 0.00749849, No Iterations 5
smoothSolver:  Solving for Uy, Initial residual = 0.358587, Final residual = 0.014459, No Iterations 3
Pressure gradient source: uncorrected Ubar = 1.23701, pressure gradient = -5.79407
GAMG:  Solving for p, Initial residual = 0.132089, Final residual = 0.0127931, No Iterations 10
time step continuity errors : sum local = 0.0208269, global = -1.39727e-17, cumulative = 1.88788e-18
Pressure gradient source: uncorrected Ubar = 1.03279, pressure gradient = 0.678451
smoothSolver:  Solving for omega, Initial residual = 0.00826705, Final residual = 0.000442431, No Iterations 1
smoothSolver:  Solving for k, Initial residual = 0.578655, Final residual = 0.0514522, No Iterations 2
ExecutionTime = 0.022366 s  ClockTime = 0 s

Time = 5s

smoothSolver:  Solving for Ux, Initial residual = 0.0921747, Final residual = 0.00760759, No Iterations 4
smoothSolver:  Solving for Uy, Initial residual = 0.57656, Final residual = 0.0483143, No Iterations 2
Pressure gradient source: uncorrected Ubar = 0.976799, pressure gradient = 1.47904
GAMG:  Solving for p, Initial residual = 0.17958, Final residual = 0.0169834, No Iterations 11
time step continuity errors : sum local = 0.0246562, global = -8.60585e-19, cumulative = 1.0273e-18
Pressure gradient source: uncorrected Ubar = 0.995897, pressure gradient = 0.820018
smoothSolver:  Solving for omega, Initial residual = 0.00762364, Final residual = 0.000286228, No Iterations 2
smoothSolver:  Solving for k, Initial residual = 0.680201, Final residual = 0.013252, No Iterations 2
ExecutionTime = 0.025123 s  ClockTime = 0 s

Time = 6s

smoothSolver:  Solving for Ux, Initial residual = 0.0792595, Final residual = 0.00541548, No Iterations 4
smoothSolver:  Solving for Uy, Initial residual = 0.619053, Final residual = 0.0589504, No Iterations 2
Pressure gradient source: uncorrected Ubar = 0.949916, pressure gradient = 2.71967
GAMG:  Solving for p, Initial residual = 0.366959, Final residual = 0.0285644, No Iterations 10
time step continuity errors : sum local = 0.0335326, global = 4.4886e-17, cumulative = 4.59133e-17
Pressure gradient source: uncorrected Ubar = 0.992584, pressure gradient = 1.1013
smoothSolver:  Solving for omega, Initial residual = 0.0120809, Final residual = 0.000472316, No Iterations 2
smoothSolver:  Solving for k, Initial residual = 0.395277, Final residual = 0.0113099, No Iterations 2
ExecutionTime = 0.027823 s  ClockTime = 0 s

Time = 7s

smoothSolver:  Solving for Ux, Initial residual = 0.0565479, Final residual = 0.00457912, No Iterations 4
smoothSolver:  Solving for Uy, Initial residual = 0.420288, Final residual = 0.0166528, No Iterations 3
Pressure gradient source: uncorrected Ubar = 0.953818, pressure gradient = 3.03151
GAMG:  Solving for p, Initial residual = 0.311837, Final residual = 0.0304945, No Iterations 10
time step continuity errors : sum local = 0.0393037, global = 3.64292e-17, cumulative = 8.23425e-17
Pressure gradient source: uncorrected Ubar = 0.995888, pressure gradient = 1.27314
smoothSolver:  Solving for omega, Initial residual = 0.00986194, Final residual = 0.000261718, No Iterations 2
smoothSolver:  Solving for k, Initial residual = 0.234972, Final residual = 0.0101306, No Iterations 2
ExecutionTime = 0.030552 s  ClockTime = 0 s

Time = 8s

smoothSolver:  Solving for Ux, Initial residual = 0.0553123, Final residual = 0.00470148, No Iterations 4
smoothSolver:  Solving for Uy, Initial residual = 0.407433, Final residual = 0.0180774, No Iterations 3
Pressure gradient source: uncorrected Ubar = 0.982709, pressure gradient = 2.09296
GAMG:  Solving for p, Initial residual = 0.270567, Final residual = 0.0258335, No Iterations 10
time step continuity errors : sum local = 0.0447568, global = -1.47451e-17, cumulative = 6.75973e-17
Pressure gradient source: uncorrected Ubar = 0.998363, pressure gradient = 1.35076
smoothSolver:  Solving for omega, Initial residual = 0.00637051, Final residual = 0.000310389, No Iterations 2
smoothSolver:  Solving for k, Initial residual = 0.199036, Final residual = 0.016155, No Iterations 2
ExecutionTime = 0.033282 s  ClockTime = 0 s

Time = 9s

smoothSolver:  Solving for Ux, Initial residual = 0.0426996, Final residual = 0.00349923, No Iterations 4
smoothSolver:  Solving for Uy, Initial residual = 0.462663, Final residual = 0.0220598, No Iterations 3
Pressure gradient source: uncorrected Ubar = 0.943905, pressure gradient = 4.67173
GAMG:  Solving for p, Initial residual = 0.306711, Final residual = 0.0224951, No Iterations 7
time step continuity errors : sum local = 0.0415995, global = 6.24738e-17, cumulative = 1.30071e-16
Pressure gradient source: uncorrected Ubar = 0.991189, pressure gradient = 1.8724
smoothSolver:  Solving for omega, Initial residual = 0.00456119, Final residual = 0.000298574, No Iterations 2
smoothSolver:  Solving for k, Initial residual = 0.165038, Final residual = 0.00908462, No Iterations 3
ExecutionTime = 0.03587 s  ClockTime = 0 s

Time = 10s

smoothSolver:  Solving for Ux, Initial residual = 0.033561, Final residual = 0.00305453, No Iterations 4
smoothSolver:  Solving for Uy, Initial residual = 0.40369, Final residual = 0.0184849, No Iterations 3
Pressure gradient source: uncorrected Ubar = 0.97314, pressure gradient = 3.66987
GAMG:  Solving for p, Initial residual = 0.29585, Final residual = 0.0265027, No Iterations 10
time step continuity errors : sum local = 0.0416946, global = -4.13555e-17, cumulative = 8.87155e-17
Pressure gradient source: uncorrected Ubar = 0.994862, pressure gradient = 2.21625
smoothSolver:  Solving for omega, Initial residual = 0.00412715, Final residual = 0.000395216, No Iterations 2
smoothSolver:  Solving for k, Initial residual = 0.129083, Final residual = 0.0110136, No Iterations 3
ExecutionTime = 0.038591 s  ClockTime = 0 s

Time = 11s

smoothSolver:  Solving for Ux, Initial residual = 0.0269127, Final residual = 0.00263068, No Iterations 4
smoothSolver:  Solving for Uy, Initial residual = 0.383473, Final residual = 0.022652, No Iterations 3
Pressure gradient source: uncorrected Ubar = 0.982279, pressure gradient = 3.55699
GAMG:  Solving for p, Initial residual = 0.236118, Final residual = 0.0202562, No Iterations 7
time step continuity errors : sum local = 0.0397301, global = 3.01374e-17, cumulative = 1.18853e-16
Pressure gradient source: uncorrected Ubar = 0.99732, pressure gradient = 2.41899
smoothSolver:  Solving for omega, Initial residual = 0.00399098, Final residual = 0.000230259, No Iterations 3
smoothSolver:  Solving for k, Initial residual = 0.105465, Final residual = 0.00597643, No Iterations 4
ExecutionTime = 0.041215 s  ClockTime = 0 s

Time = 12s

smoothSolver:  Solving for Ux, Initial residual = 0.0226807, Final residual = 0.00149914, No Iterations 5
smoothSolver:  Solving for Uy, Initial residual = 0.373959, Final residual = 0.0233621, No Iterations 3
Pressure gradient source: uncorrected Ubar = 0.983539, pressure gradient = 3.78805
GAMG:  Solving for p, Initial residual = 0.170377, Final residual = 0.0124377, No Iterations 9
time step continuity errors : sum local = 0.0310094, global = -1.32273e-17, cumulative = 1.05626e-16
Pressure gradient source: uncorrected Ubar = 0.999016, pressure gradient = 2.5008
smoothSolver:  Solving for omega, Initial residual = 0.00320256, Final residual = 0.000272866, No Iterations 3
smoothSolver:  Solving for k, Initial residual = 0.0846943, Final residual = 0.0058904, No Iterations 4
ExecutionTime = 0.043924 s  ClockTime = 0 s

Time = 13s

smoothSolver:  Solving for Ux, Initial residual = 0.0198209, Final residual = 0.00133143, No Iterations 5
smoothSolver:  Solving for Uy, Initial residual = 0.320184, Final residual = 0.020744, No Iterations 3
Pressure gradient source: uncorrected Ubar = 0.98107, pressure gradient = 4.25686
GAMG:  Solving for p, Initial residual = 0.140818, Final residual = 0.0090375, No Iterations 7
time step continuity errors : sum local = 0.0217761, global = -2.55872e-17, cumulative = 8.00385e-17
Pressure gradient source: uncorrected Ubar = 0.998778, pressure gradient = 2.61414
smoothSolver:  Solving for omega, Initial residual = 0.00311779, Final residual = 0.000295633, No Iterations 3
smoothSolver:  Solving for k, Initial residual = 0.0709859, Final residual = 0.00636167, No Iterations 4
ExecutionTime = 0.046566 s  ClockTime = 0 s

Time = 14s

smoothSolver:  Solving for Ux, Initial residual = 0.0178396, Final residual = 0.00121571, No Iterations 5
smoothSolver:  Solving for Uy, Initial residual = 0.330744, Final residual = 0.0214029, No Iterations 3
Pressure gradient source: uncorrected Ubar = 0.986237, pressure gradient = 4.01511
GAMG:  Solving for p, Initial residual = 0.121201, Final residual = 0.0110696, No Iterations 9
time step continuity errors : sum local = 0.0198491, global = -2.99782e-17, cumulative = 5.00603e-17
Pressure gradient source: uncorrected Ubar = 0.998616, pressure gradient = 2.75499
smoothSolver:  Solving for omega, Initial residual = 0.0030489, Final residual = 0.000183811, No Iterations 4
smoothSolver:  Solving for k, Initial residual = 0.0604691, Final residual = 0.00603878, No Iterations 4
ExecutionTime = 0.04927 s  ClockTime = 0 s

Time = 15s

smoothSolver:  Solving for Ux, Initial residual = 0.0162154, Final residual = 0.00113063, No Iterations 5
smoothSolver:  Solving for Uy, Initial residual = 0.373424, Final residual = 0.0297935, No Iterations 3
Pressure gradient source: uncorrected Ubar = 0.994739, pressure gradient = 3.34266
GAMG:  Solving for p, Initial residual = 0.160696, Final residual = 0.0160486, No Iterations 10
time step continuity errors : sum local = 0.0210673, global = -7.42848e-18, cumulative = 4.26319e-17
Pressure gradient source: uncorrected Ubar = 0.999413, pressure gradient = 2.82054
smoothSolver:  Solving for omega, Initial residual = 0.00261409, Final residual = 0.000171948, No Iterations 4
smoothSolver:  Solving for k, Initial residual = 0.0537625, Final residual = 0.00358286, No Iterations 5
ExecutionTime = 0.052069 s  ClockTime = 0 s

Time = 16s

smoothSolver:  Solving for Ux, Initial residual = 0.0149209, Final residual = 0.00105931, No Iterations 5
smoothSolver:  Solving for Uy, Initial residual = 0.305825, Final residual = 0.0284373, No Iterations 3
Pressure gradient source: uncorrected Ubar = 0.996034, pressure gradient = 3.31571
GAMG:  Solving for p, Initial residual = 0.282045, Final residual = 0.0219393, No Iterations 9
time step continuity errors : sum local = 0.0176056, global = 7.13913e-17, cumulative = 1.14023e-16
Pressure gradient source: uncorrected Ubar = 0.999419, pressure gradient = 2.89303
smoothSolver:  Solving for omega, Initial residual = 0.00263904, Final residual = 0.00019495, No Iterations 4
smoothSolver:  Solving for k, Initial residual = 0.0474267, Final residual = 0.00342923, No Iterations 5
ExecutionTime = 0.054787 s  ClockTime = 0 s

Time = 17s

smoothSolver:  Solving for Ux, Initial residual = 0.013899, Final residual = 0.00100028, No Iterations 5
smoothSolver:  Solving for Uy, Initial residual = 0.290267, Final residual = 0.0255085, No Iterations 3
Pressure gradient source: uncorrected Ubar = 0.999202, pressure gradient = 3.00221
GAMG:  Solving for p, Initial residual = 0.135689, Final residual = 0.0109736, No Iterations 11
time step continuity errors : sum local = 0.015327, global = 7.74934e-17, cumulative = 1.91517e-16
Pressure gradient source: uncorrected Ubar = 0.99982, pressure gradient = 2.91764
smoothSolver:  Solving for omega, Initial residual = 0.00257295, Final residual = 0.00019018, No Iterations 4
smoothSolver:  Solving for k, Initial residual = 0.0418012, Final residual = 0.00330251, No Iterations 5
ExecutionTime = 0.057603 s  ClockTime = 0 s

Time = 18s

smoothSolver:  Solving for Ux, Initial residual = 0.0130327, Final residual = 0.000950273, No Iterations 5
smoothSolver:  Solving for Uy, Initial residual = 0.210133, Final residual = 0.0206286, No Iterations 3
Pressure gradient source: uncorrected Ubar = 1.0014, pressure gradient = 2.70564
GAMG:  Solving for p, Initial residual = 0.085427, Final residual = 0.00761562, No Iterations 9
time step continuity errors : sum local = 0.0145791, global = -5.75711e-17, cumulative = 1.33945e-16
Pressure gradient source: uncorrected Ubar = 1.00017, pressure gradient = 2.89144
smoothSolver:  Solving for omega, Initial residual = 0.0024512, Final residual = 0.000190931, No Iterations 4
smoothSolver:  Solving for k, Initial residual = 0.037401, Final residual = 0.00314912, No Iterations 5
ExecutionTime = 0.060348 s  ClockTime = 0 s

Time = 19s

smoothSolver:  Solving for Ux, Initial residual = 0.0122886, Final residual = 0.000905538, No Iterations 5
smoothSolver:  Solving for Uy, Initial residual = 0.151172, Final residual = 0.00917674, No Iterations 4
Pressure gradient source: uncorrected Ubar = 1.00356, pressure gradient = 2.30266
GAMG:  Solving for p, Initial residual = 0.0652352, Final residual = 0.0065058, No Iterations 8
time step continuity errors : sum local = 0.0135089, global = 1.38227e-17, cumulative = 1.47768e-16
Pressure gradient source: uncorrected Ubar = 1.00043, pressure gradient = 2.81972
smoothSolver:  Solving for omega, Initial residual = 0.00245627, Final residual = 0.000198204, No Iterations 4
smoothSolver:  Solving for k, Initial residual = 0.0342876, Final residual = 0.00306808, No Iterations 5
ExecutionTime = 0.063052 s  ClockTime = 0 s

Time = 20s

smoothSolver:  Solving for Ux, Initial residual = 0.011638, Final residual = 0.000867431, No Iterations 5
smoothSolver:  Solving for Uy, Initial residual = 0.133883, Final residual = 0.0087579, No Iterations 4
Pressure gradient source: uncorrected Ubar = 1.00439, pressure gradient = 2.03207
GAMG:  Solving for p, Initial residual = 0.0517519, Final residual = 0.00483127, No Iterations 9
time step continuity errors : sum local = 0.00866889, global = 5.80048e-17, cumulative = 2.05773e-16
Pressure gradient source: uncorrected Ubar = 1.00065, pressure gradient = 2.70392
smoothSolver:  Solving for omega, Initial residual = 0.00236961, Final residual = 0.000200965, No Iterations 4
smoothSolver:  Solving for k, Initial residual = 0.0312, Final residual = 0.00293974, No Iterations 5
ExecutionTime = 0.06578 s  ClockTime = 0 s

Time = 21s

smoothSolver:  Solving for Ux, Initial residual = 0.0110557, Final residual = 0.000831499, No Iterations 5
smoothSolver:  Solving for Uy, Initial residual = 0.124223, Final residual = 0.00930619, No Iterations 4
Pressure gradient source: uncorrected Ubar = 1.00407, pressure gradient = 1.9222
GAMG:  Solving for p, Initial residual = 0.0475618, Final residual = 0.00465055, No Iterations 9
time step continuity errors : sum local = 0.00613485, global = 4.21246e-17, cumulative = 2.47898e-16
Pressure gradient source: uncorrected Ubar = 1.0005, pressure gradient = 2.60851
smoothSolver:  Solving for omega, Initial residual = 0.00216523, Final residual = 0.000211866, No Iterations 4
smoothSolver:  Solving for k, Initial residual = 0.0284524, Final residual = 0.00279849, No Iterations 5
ExecutionTime = 0.068536 s  ClockTime = 0 s

Time = 22s

smoothSolver:  Solving for Ux, Initial residual = 0.0105588, Final residual = 0.000803198, No Iterations 5
smoothSolver:  Solving for Uy, Initial residual = 0.115838, Final residual = 0.0109908, No Iterations 4
Pressure gradient source: uncorrected Ubar = 1.00442, pressure gradient = 1.7114
GAMG:  Solving for p, Initial residual = 0.0507487, Final residual = 0.00506167, No Iterations 9
time step continuity errors : sum local = 0.00496642, global = -1.59166e-17, cumulative = 2.31981e-16
Pressure gradient source: uncorrected Ubar = 1.00055, pressure gradient = 2.49741
smoothSolver:  Solving for omega, Initial residual = 0.00195849, Final residual = 0.000124403, No Iterations 5
smoothSolver:  Solving for k, Initial residual = 0.0264366, Final residual = 0.00172344, No Iterations 6
ExecutionTime = 0.071324 s  ClockTime = 0 s

Time = 23s

smoothSolver:  Solving for Ux, Initial residual = 0.0101046, Final residual = 0.000774189, No Iterations 5
smoothSolver:  Solving for Uy, Initial residual = 0.129172, Final residual = 0.0121846, No Iterations 4
Pressure gradient source: uncorrected Ubar = 1.00436, pressure gradient = 1.55531
GAMG:  Solving for p, Initial residual = 0.058623, Final residual = 0.0050385, No Iterations 12
time step continuity errors : sum local = 0.00395725, global = -6.73988e-17, cumulative = 1.64582e-16
Pressure gradient source: uncorrected Ubar = 1.00051, pressure gradient = 2.38743
smoothSolver:  Solving for omega, Initial residual = 0.00175736, Final residual = 0.000127895, No Iterations 5
smoothSolver:  Solving for k, Initial residual = 0.0243326, Final residual = 0.00164462, No Iterations 6
ExecutionTime = 0.074206 s  ClockTime = 1 s

Time = 24s

smoothSolver:  Solving for Ux, Initial residual = 0.00970183, Final residual = 0.000752261, No Iterations 5
smoothSolver:  Solving for Uy, Initial residual = 0.121559, Final residual = 0.0120055, No Iterations 4
Pressure gradient source: uncorrected Ubar = 1.0035, pressure gradient = 1.59643
GAMG:  Solving for p, Initial residual = 0.107632, Final residual = 0.0102332, No Iterations 11
time step continuity errors : sum local = 0.00402462, global = -7.92548e-17, cumulative = 8.53274e-17
Pressure gradient source: uncorrected Ubar = 1.00039, pressure gradient = 2.29925
smoothSolver:  Solving for omega, Initial residual = 0.0015317, Final residual = 0.000121088, No Iterations 5
smoothSolver:  Solving for k, Initial residual = 0.0224643, Final residual = 0.0015638, No Iterations 6
ExecutionTime = 0.077044 s  ClockTime = 1 s

Time = 25s

smoothSolver:  Solving for Ux, Initial residual = 0.00934859, Final residual = 0.000730743, No Iterations 5
smoothSolver:  Solving for Uy, Initial residual = 0.101612, Final residual = 0.00693291, No Iterations 5
Pressure gradient source: uncorrected Ubar = 1.00341, pressure gradient = 1.48962
GAMG:  Solving for p, Initial residual = 0.056089, Final residual = 0.00476351, No Iterations 13
time step continuity errors : sum local = 0.00300452, global = 5.73883e-17, cumulative = 1.42716e-16
Pressure gradient source: uncorrected Ubar = 1.00036, pressure gradient = 2.21335
smoothSolver:  Solving for omega, Initial residual = 0.0014193, Final residual = 0.000117602, No Iterations 5
smoothSolver:  Solving for k, Initial residual = 0.0206813, Final residual = 0.00147473, No Iterations 6
ExecutionTime = 0.080034 s  ClockTime = 1 s

Time = 26s

smoothSolver:  Solving for Ux, Initial residual = 0.00903363, Final residual = 0.000712331, No Iterations 5
smoothSolver:  Solving for Uy, Initial residual = 0.0939524, Final residual = 0.00659002, No Iterations 5
Pressure gradient source: uncorrected Ubar = 1.00301, pressure gradient = 1.46665
GAMG:  Solving for p, Initial residual = 0.029898, Final residual = 0.00266771, No Iterations 15
time step continuity errors : sum local = 0.0024732, global = -4.15723e-17, cumulative = 1.01143e-16
Pressure gradient source: uncorrected Ubar = 1.0003, pressure gradient = 2.1395
smoothSolver:  Solving for omega, Initial residual = 0.00130066, Final residual = 0.000114344, No Iterations 5
smoothSolver:  Solving for k, Initial residual = 0.0189987, Final residual = 0.00136844, No Iterations 6
ExecutionTime = 0.083057 s  ClockTime = 1 s

Time = 27s

smoothSolver:  Solving for Ux, Initial residual = 0.00874392, Final residual = 0.000696007, No Iterations 5
smoothSolver:  Solving for Uy, Initial residual = 0.0865904, Final residual = 0.00631854, No Iterations 5
Pressure gradient source: uncorrected Ubar = 1.0025, pressure gradient = 1.49217
GAMG:  Solving for p, Initial residual = 0.0177445, Final residual = 0.00154524, No Iterations 17
time step continuity errors : sum local = 0.00171516, global = 8.80914e-19, cumulative = 1.02024e-16
Pressure gradient source: uncorrected Ubar = 1.00024, pressure gradient = 2.07805
smoothSolver:  Solving for omega, Initial residual = 0.00122509, Final residual = 0.00011434, No Iterations 5
smoothSolver:  Solving for k, Initial residual = 0.0175203, Final residual = 0.00127841, No Iterations 6
ExecutionTime = 0.086192 s  ClockTime = 1 s

Time = 28s

smoothSolver:  Solving for Ux, Initial residual = 0.00849372, Final residual = 0.000681125, No Iterations 5
smoothSolver:  Solving for Uy, Initial residual = 0.0757594, Final residual = 0.00585483, No Iterations 5
Pressure gradient source: uncorrected Ubar = 1.00211, pressure gradient = 1.50836
GAMG:  Solving for p, Initial residual = 0.0120743, Final residual = 0.00114264, No Iterations 15
time step continuity errors : sum local = 0.00137404, global = 6.966e-18, cumulative = 1.0899e-16
Pressure gradient source: uncorrected Ubar = 1.00019, pressure gradient = 2.02817
smoothSolver:  Solving for omega, Initial residual = 0.00113339, Final residual = 0.000110141, No Iterations 5
smoothSolver:  Solving for k, Initial residual = 0.0162831, Final residual = 0.00120605, No Iterations 6
ExecutionTime = 0.089283 s  ClockTime = 1 s

Time = 29s

smoothSolver:  Solving for Ux, Initial residual = 0.00826286, Final residual = 0.000662253, No Iterations 5
smoothSolver:  Solving for Uy, Initial residual = 0.0691722, Final residual = 0.00587939, No Iterations 5
Pressure gradient source: uncorrected Ubar = 1.00167, pressure gradient = 1.56051
GAMG:  Solving for p, Initial residual = 0.0102881, Final residual = 0.000999868, No Iterations 8
time step continuity errors : sum local = 0.00127088, global = -5.37086e-17, cumulative = 5.52818e-17
Pressure gradient source: uncorrected Ubar = 1.00013, pressure gradient = 1.99186
smoothSolver:  Solving for omega, Initial residual = 0.0010679, Final residual = 7.0566e-05, No Iterations 6
smoothSolver:  Solving for k, Initial residual = 0.0149075, Final residual = 0.00111001, No Iterations 6
ExecutionTime = 0.092015 s  ClockTime = 1 s

Time = 30s

smoothSolver:  Solving for Ux, Initial residual = 0.00801858, Final residual = 0.000639113, No Iterations 5
smoothSolver:  Solving for Uy, Initial residual = 0.0590438, Final residual = 0.00536705, No Iterations 5
Pressure gradient source: uncorrected Ubar = 1.00108, pressure gradient = 1.67705
GAMG:  Solving for p, Initial residual = 0.00866988, Final residual = 0.000726423, No Iterations 8
time step continuity errors : sum local = 0.00086135, global = -2.34865e-17, cumulative = 3.17953e-17
Pressure gradient source: uncorrected Ubar = 1.00006, pressure gradient = 1.97555
smoothSolver:  Solving for omega, Initial residual = 0.00100744, Final residual = 6.61815e-05, No Iterations 6
smoothSolver:  Solving for k, Initial residual = 0.0135341, Final residual = 0.00102242, No Iterations 6
ExecutionTime = 0.094745 s  ClockTime = 1 s

Time = 31s

smoothSolver:  Solving for Ux, Initial residual = 0.00772407, Final residual = 0.000614719, No Iterations 5
smoothSolver:  Solving for Uy, Initial residual = 0.050549, Final residual = 0.00484679, No Iterations 5
Pressure gradient source: uncorrected Ubar = 1.00102, pressure gradient = 1.66698
GAMG:  Solving for p, Initial residual = 0.00707276, Final residual = 0.000612185, No Iterations 6
time step continuity errors : sum local = 0.000662163, global = -7.29533e-17, cumulative = -4.1158e-17
Pressure gradient source: uncorrected Ubar = 1.00005, pressure gradient = 1.96069
smoothSolver:  Solving for omega, Initial residual = 0.000957037, Final residual = 6.34174e-05, No Iterations 6
smoothSolver:  Solving for k, Initial residual = 0.0120815, Final residual = 0.000913916, No Iterations 6
ExecutionTime = 0.097378 s  ClockTime = 1 s

Time = 32s

smoothSolver:  Solving for Ux, Initial residual = 0.00744012, Final residual = 0.000592289, No Iterations 5
smoothSolver:  Solving for Uy, Initial residual = 0.0452814, Final residual = 0.00452124, No Iterations 5
Pressure gradient source: uncorrected Ubar = 1.00078, pressure gradient = 1.71821
GAMG:  Solving for p, Initial residual = 0.00640747, Final residual = 0.000554442, No Iterations 5
time step continuity errors : sum local = 0.00052139, global = -1.43047e-17, cumulative = -5.54627e-17
Pressure gradient source: uncorrected Ubar = 1.00002, pressure gradient = 1.95454
smoothSolver:  Solving for omega, Initial residual = 0.000912228, Final residual = 6.42235e-05, No Iterations 6
smoothSolver:  Solving for k, Initial residual = 0.0108431, Final residual = 0.000823491, No Iterations 6
ExecutionTime = 0.100007 s  ClockTime = 1 s

Time = 33s

smoothSolver:  Solving for Ux, Initial residual = 0.00716079, Final residual = 0.00057119, No Iterations 5
smoothSolver:  Solving for Uy, Initial residual = 0.0437746, Final residual = 0.00289787, No Iterations 6
Pressure gradient source: uncorrected Ubar = 1.00067, pressure gradient = 1.73672
GAMG:  Solving for p, Initial residual = 0.00584637, Final residual = 0.000513321, No Iterations 6
time step continuity errors : sum local = 0.000432212, global = 4.02036e-17, cumulative = -1.52591e-17
Pressure gradient source: uncorrected Ubar = 1.00001, pressure gradient = 1.95142
smoothSolver:  Solving for omega, Initial residual = 0.000868335, Final residual = 6.10677e-05, No Iterations 6
smoothSolver:  Solving for k, Initial residual = 0.00974981, Final residual = 0.00074558, No Iterations 6
ExecutionTime = 0.102647 s  ClockTime = 1 s

Time = 34s

smoothSolver:  Solving for Ux, Initial residual = 0.0069141, Final residual = 0.000552707, No Iterations 5
smoothSolver:  Solving for Uy, Initial residual = 0.0437617, Final residual = 0.00296908, No Iterations 6
Pressure gradient source: uncorrected Ubar = 1.0006, pressure gradient = 1.74966
GAMG:  Solving for p, Initial residual = 0.00538447, Final residual = 0.000506948, No Iterations 6
time step continuity errors : sum local = 0.000371524, global = 2.95987e-17, cumulative = 1.43397e-17
Pressure gradient source: uncorrected Ubar = 1, pressure gradient = 1.95088
smoothSolver:  Solving for omega, Initial residual = 0.000830733, Final residual = 5.86416e-05, No Iterations 6
smoothSolver:  Solving for k, Initial residual = 0.00889826, Final residual = 0.000670107, No Iterations 6
ExecutionTime = 0.105297 s  ClockTime = 1 s

Time = 35s

smoothSolver:  Solving for Ux, Initial residual = 0.00669859, Final residual = 0.000536976, No Iterations 5
smoothSolver:  Solving for Uy, Initial residual = 0.0439766, Final residual = 0.0030051, No Iterations 6
Pressure gradient source: uncorrected Ubar = 1.00061, pressure gradient = 1.73925
GAMG:  Solving for p, Initial residual = 0.00501092, Final residual = 0.000500429, No Iterations 6
time step continuity errors : sum local = 0.000316364, global = 9.41901e-18, cumulative = 2.37587e-17
Pressure gradient source: uncorrected Ubar = 1.00001, pressure gradient = 1.94893
smoothSolver:  Solving for omega, Initial residual = 0.000802707, Final residual = 5.79413e-05, No Iterations 6
smoothSolver:  Solving for k, Initial residual = 0.00834783, Final residual = 0.000607649, No Iterations 6
ExecutionTime = 0.107965 s  ClockTime = 1 s

Time = 36s

smoothSolver:  Solving for Ux, Initial residual = 0.00650435, Final residual = 0.000523118, No Iterations 5
smoothSolver:  Solving for Uy, Initial residual = 0.0439711, Final residual = 0.00306431, No Iterations 6
Pressure gradient source: uncorrected Ubar = 1.00066, pressure gradient = 1.71339
GAMG:  Solving for p, Initial residual = 0.00463451, Final residual = 0.000405647, No Iterations 8
time step continuity errors : sum local = 0.000230141, global = 1.30511e-17, cumulative = 3.68097e-17
Pressure gradient source: uncorrected Ubar = 1.00001, pressure gradient = 1.94418
smoothSolver:  Solving for omega, Initial residual = 0.000771703, Final residual = 5.62644e-05, No Iterations 6
smoothSolver:  Solving for k, Initial residual = 0.00794522, Final residual = 0.000570496, No Iterations 6
ExecutionTime = 0.110697 s  ClockTime = 1 s

Time = 37s

smoothSolver:  Solving for Ux, Initial residual = 0.00632132, Final residual = 0.00051015, No Iterations 5
smoothSolver:  Solving for Uy, Initial residual = 0.0452978, Final residual = 0.00317568, No Iterations 6
Pressure gradient source: uncorrected Ubar = 1.00056, pressure gradient = 1.73623
GAMG:  Solving for p, Initial residual = 0.00453348, Final residual = 0.000450006, No Iterations 8
time step continuity errors : sum local = 0.000227752, global = 1.9231e-17, cumulative = 5.60408e-17
Pressure gradient source: uncorrected Ubar = 1, pressure gradient = 1.94334
smoothSolver:  Solving for omega, Initial residual = 0.00075095, Final residual = 5.37737e-05, No Iterations 6
smoothSolver:  Solving for k, Initial residual = 0.00765477, Final residual = 0.000552817, No Iterations 6
ExecutionTime = 0.11348 s  ClockTime = 1 s

Time = 38s

smoothSolver:  Solving for Ux, Initial residual = 0.00615705, Final residual = 0.000498621, No Iterations 5
smoothSolver:  Solving for Uy, Initial residual = 0.0470601, Final residual = 0.00331613, No Iterations 6
Pressure gradient source: uncorrected Ubar = 1.00055, pressure gradient = 1.73252
GAMG:  Solving for p, Initial residual = 0.00420949, Final residual = 0.00038849, No Iterations 12
time step continuity errors : sum local = 0.000182273, global = 3.25261e-19, cumulative = 5.6366e-17
Pressure gradient source: uncorrected Ubar = 1, pressure gradient = 1.94224
smoothSolver:  Solving for omega, Initial residual = 0.000727096, Final residual = 5.4272e-05, No Iterations 6
smoothSolver:  Solving for k, Initial residual = 0.00745786, Final residual = 0.000544885, No Iterations 6
ExecutionTime = 0.116399 s  ClockTime = 1 s

Time = 39s

smoothSolver:  Solving for Ux, Initial residual = 0.00600891, Final residual = 0.000488645, No Iterations 5
smoothSolver:  Solving for Uy, Initial residual = 0.0476524, Final residual = 0.0033442, No Iterations 6
Pressure gradient source: uncorrected Ubar = 1.00058, pressure gradient = 1.7153
GAMG:  Solving for p, Initial residual = 0.00386883, Final residual = 0.000342949, No Iterations 14
time step continuity errors : sum local = 0.000150473, global = 4.02511e-18, cumulative = 6.03911e-17
Pressure gradient source: uncorrected Ubar = 1.00001, pressure gradient = 1.93948
smoothSolver:  Solving for omega, Initial residual = 0.000703881, Final residual = 5.08739e-05, No Iterations 6
smoothSolver:  Solving for k, Initial residual = 0.00730894, Final residual = 0.000539689, No Iterations 6
ExecutionTime = 0.119419 s  ClockTime = 1 s

Time = 40s

smoothSolver:  Solving for Ux, Initial residual = 0.00586813, Final residual = 0.000479544, No Iterations 5
smoothSolver:  Solving for Uy, Initial residual = 0.0468782, Final residual = 0.00332205, No Iterations 6
Pressure gradient source: uncorrected Ubar = 1.00053, pressure gradient = 1.72585
GAMG:  Solving for p, Initial residual = 0.00371952, Final residual = 0.000358359, No Iterations 14
time step continuity errors : sum local = 0.000147526, global = -4.21009e-17, cumulative = 1.82902e-17
Pressure gradient source: uncorrected Ubar = 1, pressure gradient = 1.93875
smoothSolver:  Solving for omega, Initial residual = 0.00068501, Final residual = 5.04138e-05, No Iterations 6
smoothSolver:  Solving for k, Initial residual = 0.00717031, Final residual = 0.000529907, No Iterations 6
ExecutionTime = 0.122445 s  ClockTime = 1 s

Time = 41s

smoothSolver:  Solving for Ux, Initial residual = 0.00573295, Final residual = 0.000470605, No Iterations 5
smoothSolver:  Solving for Uy, Initial residual = 0.0469597, Final residual = 0.00333281, No Iterations 6
Pressure gradient source: uncorrected Ubar = 1.00041, pressure gradient = 1.7676
GAMG:  Solving for p, Initial residual = 0.00362516, Final residual = 0.000358963, No Iterations 14
time step continuity errors : sum local = 0.000141037, global = -2.32765e-17, cumulative = -4.98624e-18
Pressure gradient source: uncorrected Ubar = 0.999987, pressure gradient = 1.94402
smoothSolver:  Solving for omega, Initial residual = 0.000667089, Final residual = 4.83164e-05, No Iterations 6
smoothSolver:  Solving for k, Initial residual = 0.00710092, Final residual = 0.000531196, No Iterations 6
ExecutionTime = 0.12545 s  ClockTime = 1 s

Time = 42s

smoothSolver:  Solving for Ux, Initial residual = 0.00561091, Final residual = 0.000462496, No Iterations 5
smoothSolver:  Solving for Uy, Initial residual = 0.0464134, Final residual = 0.00333729, No Iterations 6
Pressure gradient source: uncorrected Ubar = 1.00038, pressure gradient = 1.77725
GAMG:  Solving for p, Initial residual = 0.0032987, Final residual = 0.000299823, No Iterations 16
time step continuity errors : sum local = 0.000115156, global = -5.48267e-17, cumulative = -5.9813e-17
Pressure gradient source: uncorrected Ubar = 0.999985, pressure gradient = 1.9504
smoothSolver:  Solving for omega, Initial residual = 0.000648315, Final residual = 4.67693e-05, No Iterations 6
smoothSolver:  Solving for k, Initial residual = 0.00701495, Final residual = 0.000527173, No Iterations 6
ExecutionTime = 0.128597 s  ClockTime = 1 s

Time = 43s

smoothSolver:  Solving for Ux, Initial residual = 0.00549527, Final residual = 0.000454983, No Iterations 5
smoothSolver:  Solving for Uy, Initial residual = 0.044767, Final residual = 0.00323076, No Iterations 6
Pressure gradient source: uncorrected Ubar = 1.00033, pressure gradient = 1.80072
GAMG:  Solving for p, Initial residual = 0.00325588, Final residual = 0.00031006, No Iterations 14
time step continuity errors : sum local = 0.000117283, global = 1.08488e-17, cumulative = -4.89642e-17
Pressure gradient source: uncorrected Ubar = 0.999979, pressure gradient = 1.95967
smoothSolver:  Solving for omega, Initial residual = 0.000634153, Final residual = 4.64489e-05, No Iterations 6
smoothSolver:  Solving for k, Initial residual = 0.00697297, Final residual = 0.000527196, No Iterations 6
ExecutionTime = 0.131591 s  ClockTime = 1 s

Time = 44s

smoothSolver:  Solving for Ux, Initial residual = 0.00538295, Final residual = 0.000447874, No Iterations 5
smoothSolver:  Solving for Uy, Initial residual = 0.0437317, Final residual = 0.00317839, No Iterations 6
Pressure gradient source: uncorrected Ubar = 1.00026, pressure gradient = 1.84122
GAMG:  Solving for p, Initial residual = 0.00305783, Final residual = 0.000298228, No Iterations 14
time step continuity errors : sum local = 0.000110162, global = -6.45101e-18, cumulative = -5.54152e-17
Pressure gradient source: uncorrected Ubar = 0.99997, pressure gradient = 1.97359
smoothSolver:  Solving for omega, Initial residual = 0.000615534, Final residual = 4.47733e-05, No Iterations 6
smoothSolver:  Solving for k, Initial residual = 0.0069116, Final residual = 0.000524964, No Iterations 6
ExecutionTime = 0.134593 s  ClockTime = 1 s

Time = 45s

smoothSolver:  Solving for Ux, Initial residual = 0.00527513, Final residual = 0.000440892, No Iterations 5
smoothSolver:  Solving for Uy, Initial residual = 0.0442686, Final residual = 0.003206, No Iterations 6
Pressure gradient source: uncorrected Ubar = 1.00017, pressure gradient = 1.89287
GAMG:  Solving for p, Initial residual = 0.00278479, Final residual = 0.0002717, No Iterations 14
time step continuity errors : sum local = 9.9059e-05, global = 3.52196e-17, cumulative = -2.01956e-17
Pressure gradient source: uncorrected Ubar = 0.999959, pressure gradient = 1.99323
smoothSolver:  Solving for omega, Initial residual = 0.000600502, Final residual = 4.49188e-05, No Iterations 6
smoothSolver:  Solving for k, Initial residual = 0.00688412, Final residual = 0.000529742, No Iterations 6
ExecutionTime = 0.137615 s  ClockTime = 1 s

Time = 46s

smoothSolver:  Solving for Ux, Initial residual = 0.00517303, Final residual = 0.000433818, No Iterations 5
smoothSolver:  Solving for Uy, Initial residual = 0.04446, Final residual = 0.00322528, No Iterations 6
Pressure gradient source: uncorrected Ubar = 1.00011, pressure gradient = 1.9369
GAMG:  Solving for p, Initial residual = 0.00259052, Final residual = 0.000237973, No Iterations 14
time step continuity errors : sum local = 8.58097e-05, global = -3.47284e-17, cumulative = -5.49239e-17
Pressure gradient source: uncorrected Ubar = 0.999952, pressure gradient = 2.01692
smoothSolver:  Solving for omega, Initial residual = 0.000580336, Final residual = 4.2337e-05, No Iterations 6
smoothSolver:  Solving for k, Initial residual = 0.0068298, Final residual = 0.000527619, No Iterations 6
ExecutionTime = 0.14062 s  ClockTime = 1 s

Time = 47s

smoothSolver:  Solving for Ux, Initial residual = 0.00507662, Final residual = 0.000427208, No Iterations 5
smoothSolver:  Solving for Uy, Initial residual = 0.0442946, Final residual = 0.00322163, No Iterations 6
Pressure gradient source: uncorrected Ubar = 1.00003, pressure gradient = 2.00397
GAMG:  Solving for p, Initial residual = 0.00243511, Final residual = 0.00021798, No Iterations 14
time step continuity errors : sum local = 7.80074e-05, global = 3.35425e-19, cumulative = -5.45885e-17
Pressure gradient source: uncorrected Ubar = 0.999941, pressure gradient = 2.04734
smoothSolver:  Solving for omega, Initial residual = 0.000563377, Final residual = 4.09234e-05, No Iterations 6
smoothSolver:  Solving for k, Initial residual = 0.00681043, Final residual = 0.0005313, No Iterations 6
ExecutionTime = 0.143614 s  ClockTime = 1 s

Time = 48s

smoothSolver:  Solving for Ux, Initial residual = 0.00498178, Final residual = 0.000420966, No Iterations 5
smoothSolver:  Solving for Uy, Initial residual = 0.0423198, Final residual = 0.00309478, No Iterations 6
Pressure gradient source: uncorrected Ubar = 0.999939, pressure gradient = 2.08017
GAMG:  Solving for p, Initial residual = 0.0020537, Final residual = 0.000203774, No Iterations 12
time step continuity errors : sum local = 7.20425e-05, global = 1.21126e-17, cumulative = -4.24759e-17
Pressure gradient source: uncorrected Ubar = 0.99993, pressure gradient = 2.08489
smoothSolver:  Solving for omega, Initial residual = 0.000545445, Final residual = 3.91228e-05, No Iterations 6
smoothSolver:  Solving for k, Initial residual = 0.00672062, Final residual = 0.000519203, No Iterations 6
ExecutionTime = 0.146555 s  ClockTime = 1 s

Time = 49s

smoothSolver:  Solving for Ux, Initial residual = 0.00489124, Final residual = 0.000414941, No Iterations 5
smoothSolver:  Solving for Uy, Initial residual = 0.0403889, Final residual = 0.00297293, No Iterations 6
Pressure gradient source: uncorrected Ubar = 0.999955, pressure gradient = 2.10968
GAMG:  Solving for p, Initial residual = 0.00186479, Final residual = 0.000157073, No Iterations 10
time step continuity errors : sum local = 5.58911e-05, global = 1.18771e-17, cumulative = -3.05988e-17
Pressure gradient source: uncorrected Ubar = 0.999932, pressure gradient = 2.12247
smoothSolver:  Solving for omega, Initial residual = 0.000529129, Final residual = 3.93767e-05, No Iterations 6
smoothSolver:  Solving for k, Initial residual = 0.00669502, Final residual = 0.00052353, No Iterations 6
ExecutionTime = 0.149411 s  ClockTime = 1 s

Time = 50s

smoothSolver:  Solving for Ux, Initial residual = 0.00480426, Final residual = 0.00040892, No Iterations 5
smoothSolver:  Solving for Uy, Initial residual = 0.0385726, Final residual = 0.00286385, No Iterations 6
Pressure gradient source: uncorrected Ubar = 0.999994, pressure gradient = 2.12582
GAMG:  Solving for p, Initial residual = 0.00175083, Final residual = 0.000105181, No Iterations 7
time step continuity errors : sum local = 3.16193e-05, global = 2.68018e-17, cumulative = -3.79703e-18
Pressure gradient source: uncorrected Ubar = 0.999938, pressure gradient = 2.15824
smoothSolver:  Solving for omega, Initial residual = 0.000510298, Final residual = 3.82199e-05, No Iterations 6
smoothSolver:  Solving for k, Initial residual = 0.00666886, Final residual = 0.000522889, No Iterations 6
ExecutionTime = 0.152101 s  ClockTime = 1 s

Time = 51s

smoothSolver:  Solving for Ux, Initial residual = 0.00472073, Final residual = 0.000403021, No Iterations 5
smoothSolver:  Solving for Uy, Initial residual = 0.036285, Final residual = 0.00270573, No Iterations 6
Pressure gradient source: uncorrected Ubar = 0.999947, pressure gradient = 2.19003
GAMG:  Solving for p, Initial residual = 0.00164359, Final residual = 9.3952e-05, No Iterations 7
time step continuity errors : sum local = 2.74341e-05, global = 1.52466e-19, cumulative = -3.64456e-18
Pressure gradient source: uncorrected Ubar = 0.999932, pressure gradient = 2.19896
smoothSolver:  Solving for omega, Initial residual = 0.000492589, Final residual = 3.59868e-05, No Iterations 6
smoothSolver:  Solving for k, Initial residual = 0.00661753, Final residual = 0.000520082, No Iterations 6
ExecutionTime = 0.154789 s  ClockTime = 1 s

Time = 52s

smoothSolver:  Solving for Ux, Initial residual = 0.0046401, Final residual = 0.00039763, No Iterations 5
smoothSolver:  Solving for Uy, Initial residual = 0.0345142, Final residual = 0.00258512, No Iterations 6
Pressure gradient source: uncorrected Ubar = 0.999989, pressure gradient = 2.20577
GAMG:  Solving for p, Initial residual = 0.00159394, Final residual = 0.00015153, No Iterations 7
time step continuity errors : sum local = 4.9051e-05, global = 3.88026e-18, cumulative = 2.35696e-19
Pressure gradient source: uncorrected Ubar = 0.999939, pressure gradient = 2.23749
smoothSolver:  Solving for omega, Initial residual = 0.00047715, Final residual = 3.53471e-05, No Iterations 6
smoothSolver:  Solving for k, Initial residual = 0.00658628, Final residual = 0.000518027, No Iterations 6
ExecutionTime = 0.15752 s  ClockTime = 1 s

Time = 53s

smoothSolver:  Solving for Ux, Initial residual = 0.00456463, Final residual = 0.000392475, No Iterations 5
smoothSolver:  Solving for Uy, Initial residual = 0.031939, Final residual = 0.00241248, No Iterations 6
Pressure gradient source: uncorrected Ubar = 1.00005, pressure gradient = 2.2067
GAMG:  Solving for p, Initial residual = 0.00132726, Final residual = 7.57534e-05, No Iterations 7
time step continuity errors : sum local = 2.14142e-05, global = -2.30715e-17, cumulative = -2.28358e-17
Pressure gradient source: uncorrected Ubar = 0.999947, pressure gradient = 2.27203
smoothSolver:  Solving for omega, Initial residual = 0.000459264, Final residual = 3.43663e-05, No Iterations 6
smoothSolver:  Solving for k, Initial residual = 0.00656008, Final residual = 0.000520082, No Iterations 6
ExecutionTime = 0.160219 s  ClockTime = 1 s

Time = 54s

smoothSolver:  Solving for Ux, Initial residual = 0.00449109, Final residual = 0.000387298, No Iterations 5
smoothSolver:  Solving for Uy, Initial residual = 0.0298133, Final residual = 0.00225562, No Iterations 6
Pressure gradient source: uncorrected Ubar = 1.00008, pressure gradient = 2.21548
GAMG:  Solving for p, Initial residual = 0.00128017, Final residual = 6.98174e-05, No Iterations 7
time step continuity errors : sum local = 1.92083e-05, global = 1.81511e-17, cumulative = -4.68473e-18
Pressure gradient source: uncorrected Ubar = 0.999953, pressure gradient = 2.30413
smoothSolver:  Solving for omega, Initial residual = 0.00044635, Final residual = 3.29361e-05, No Iterations 6
smoothSolver:  Solving for k, Initial residual = 0.00651783, Final residual = 0.000516251, No Iterations 6
ExecutionTime = 0.162907 s  ClockTime = 1 s

Time = 55s

smoothSolver:  Solving for Ux, Initial residual = 0.00442395, Final residual = 0.000382557, No Iterations 5
smoothSolver:  Solving for Uy, Initial residual = 0.0284913, Final residual = 0.00215684, No Iterations 6
Pressure gradient source: uncorrected Ubar = 1.00013, pressure gradient = 2.21121
GAMG:  Solving for p, Initial residual = 0.00111178, Final residual = 9.57552e-05, No Iterations 8
time step continuity errors : sum local = 3.08424e-05, global = -8.17641e-18, cumulative = -1.28611e-17
Pressure gradient source: uncorrected Ubar = 0.99996, pressure gradient = 2.33221
smoothSolver:  Solving for omega, Initial residual = 0.000433482, Final residual = 3.31916e-05, No Iterations 6
smoothSolver:  Solving for k, Initial residual = 0.00648556, Final residual = 0.000513637, No Iterations 6
ExecutionTime = 0.165635 s  ClockTime = 1 s

Time = 56s

smoothSolver:  Solving for Ux, Initial residual = 0.00435891, Final residual = 0.000378335, No Iterations 5
smoothSolver:  Solving for Uy, Initial residual = 0.027424, Final residual = 0.00208658, No Iterations 6
Pressure gradient source: uncorrected Ubar = 1.00016, pressure gradient = 2.21588
GAMG:  Solving for p, Initial residual = 0.0010092, Final residual = 5.48374e-05, No Iterations 7
time step continuity errors : sum local = 1.49136e-05, global = -1.93886e-17, cumulative = -3.22497e-17
Pressure gradient source: uncorrected Ubar = 0.999965, pressure gradient = 2.358
smoothSolver:  Solving for omega, Initial residual = 0.000419112, Final residual = 3.20452e-05, No Iterations 6
smoothSolver:  Solving for k, Initial residual = 0.00646773, Final residual = 0.000517217, No Iterations 6
ExecutionTime = 0.168346 s  ClockTime = 1 s

Time = 57s

smoothSolver:  Solving for Ux, Initial residual = 0.00429676, Final residual = 0.000374254, No Iterations 5
smoothSolver:  Solving for Uy, Initial residual = 0.0258216, Final residual = 0.00197125, No Iterations 6
Pressure gradient source: uncorrected Ubar = 1.0002, pressure gradient = 2.20841
GAMG:  Solving for p, Initial residual = 0.000916794, Final residual = 7.9877e-05, No Iterations 8
time step continuity errors : sum local = 2.52941e-05, global = 2.9248e-17, cumulative = -3.00167e-18
Pressure gradient source: uncorrected Ubar = 0.999971, pressure gradient = 2.38014
smoothSolver:  Solving for omega, Initial residual = 0.000408385, Final residual = 3.10035e-05, No Iterations 6
smoothSolver:  Solving for k, Initial residual = 0.00642892, Final residual = 0.000516097, No Iterations 6
ExecutionTime = 0.171108 s  ClockTime = 1 s

Time = 58s

smoothSolver:  Solving for Ux, Initial residual = 0.00423835, Final residual = 0.0003704, No Iterations 5
smoothSolver:  Solving for Uy, Initial residual = 0.0241313, Final residual = 0.00184964, No Iterations 6
Pressure gradient source: uncorrected Ubar = 1.00023, pressure gradient = 2.20044
GAMG:  Solving for p, Initial residual = 0.00091206, Final residual = 8.60887e-05, No Iterations 8
time step continuity errors : sum local = 2.6804e-05, global = -1.45012e-17, cumulative = -1.75029e-17
Pressure gradient source: uncorrected Ubar = 0.999976, pressure gradient = 2.39894
smoothSolver:  Solving for omega, Initial residual = 0.000394453, Final residual = 2.94539e-05, No Iterations 6
smoothSolver:  Solving for k, Initial residual = 0.00636964, Final residual = 0.000504688, No Iterations 6
ExecutionTime = 0.173844 s  ClockTime = 1 s

Time = 59s

smoothSolver:  Solving for Ux, Initial residual = 0.00418695, Final residual = 0.000366756, No Iterations 5
smoothSolver:  Solving for Uy, Initial residual = 0.0221653, Final residual = 0.00172461, No Iterations 6
Pressure gradient source: uncorrected Ubar = 1.00026, pressure gradient = 2.18591
GAMG:  Solving for p, Initial residual = 0.000850306, Final residual = 8.2811e-05, No Iterations 6
time step continuity errors : sum local = 2.45252e-05, global = -1.37287e-17, cumulative = -3.12316e-17
Pressure gradient source: uncorrected Ubar = 0.999982, pressure gradient = 2.41388
smoothSolver:  Solving for omega, Initial residual = 0.000384147, Final residual = 2.87844e-05, No Iterations 6
smoothSolver:  Solving for k, Initial residual = 0.0063757, Final residual = 0.000515295, No Iterations 6
ExecutionTime = 0.176528 s  ClockTime = 1 s

Time = 60s

smoothSolver:  Solving for Ux, Initial residual = 0.00413742, Final residual = 0.000363635, No Iterations 5
smoothSolver:  Solving for Uy, Initial residual = 0.0198337, Final residual = 0.00153379, No Iterations 6
Pressure gradient source: uncorrected Ubar = 1.00029, pressure gradient = 2.17373
GAMG:  Solving for p, Initial residual = 0.000748322, Final residual = 7.1814e-05, No Iterations 5
time step continuity errors : sum local = 2.06174e-05, global = 1.72473e-17, cumulative = -1.39843e-17
Pressure gradient source: uncorrected Ubar = 0.999986, pressure gradient = 2.42574
smoothSolver:  Solving for omega, Initial residual = 0.000372959, Final residual = 2.84645e-05, No Iterations 6
smoothSolver:  Solving for k, Initial residual = 0.00632522, Final residual = 0.000505302, No Iterations 6
ExecutionTime = 0.179138 s  ClockTime = 1 s

Time = 61s

smoothSolver:  Solving for Ux, Initial residual = 0.00408839, Final residual = 0.000360559, No Iterations 5
smoothSolver:  Solving for Uy, Initial residual = 0.0179014, Final residual = 0.00138432, No Iterations 6
Pressure gradient source: uncorrected Ubar = 1.0003, pressure gradient = 2.16652
GAMG:  Solving for p, Initial residual = 0.000665879, Final residual = 5.68158e-05, No Iterations 6
time step continuity errors : sum local = 1.70438e-05, global = 2.59887e-17, cumulative = 1.20044e-17
Pressure gradient source: uncorrected Ubar = 0.999989, pressure gradient = 2.43555
smoothSolver:  Solving for omega, Initial residual = 0.000362166, Final residual = 2.74018e-05, No Iterations 6
smoothSolver:  Solving for k, Initial residual = 0.0063181, Final residual = 0.000510234, No Iterations 6
ExecutionTime = 0.181789 s  ClockTime = 1 s

Time = 62s

smoothSolver:  Solving for Ux, Initial residual = 0.00404121, Final residual = 0.000357594, No Iterations 5
smoothSolver:  Solving for Uy, Initial residual = 0.0163934, Final residual = 0.00126837, No Iterations 6
Pressure gradient source: uncorrected Ubar = 1.00032, pressure gradient = 2.14982
GAMG:  Solving for p, Initial residual = 0.000647666, Final residual = 5.26622e-05, No Iterations 6
time step continuity errors : sum local = 1.56802e-05, global = -1.23675e-17, cumulative = -3.6316e-19
Pressure gradient source: uncorrected Ubar = 0.999992, pressure gradient = 2.4422
smoothSolver:  Solving for omega, Initial residual = 0.000353171, Final residual = 2.6861e-05, No Iterations 6
smoothSolver:  Solving for k, Initial residual = 0.00625642, Final residual = 0.000497999, No Iterations 6
ExecutionTime = 0.184495 s  ClockTime = 1 s

Time = 63s

smoothSolver:  Solving for Ux, Initial residual = 0.00399635, Final residual = 0.000354717, No Iterations 5
smoothSolver:  Solving for Uy, Initial residual = 0.0152518, Final residual = 0.0011882, No Iterations 6
Pressure gradient source: uncorrected Ubar = 1.00034, pressure gradient = 2.13473
GAMG:  Solving for p, Initial residual = 0.000668426, Final residual = 6.13837e-05, No Iterations 5
time step continuity errors : sum local = 1.66051e-05, global = 1.25734e-17, cumulative = 1.22102e-17
Pressure gradient source: uncorrected Ubar = 0.999996, pressure gradient = 2.44629
smoothSolver:  Solving for omega, Initial residual = 0.000344608, Final residual = 2.59385e-05, No Iterations 6
smoothSolver:  Solving for k, Initial residual = 0.0062533, Final residual = 0.000508123, No Iterations 6
ExecutionTime = 0.187207 s  ClockTime = 1 s

Time = 64s

smoothSolver:  Solving for Ux, Initial residual = 0.00395419, Final residual = 0.000351949, No Iterations 5
smoothSolver:  Solving for Uy, Initial residual = 0.0143593, Final residual = 0.00111235, No Iterations 6
Pressure gradient source: uncorrected Ubar = 1.00035, pressure gradient = 2.11592
GAMG:  Solving for p, Initial residual = 0.000671964, Final residual = 6.55895e-05, No Iterations 5
time step continuity errors : sum local = 1.68096e-05, global = -1.87194e-17, cumulative = -6.50923e-18
Pressure gradient source: uncorrected Ubar = 0.999999, pressure gradient = 2.44757
smoothSolver:  Solving for omega, Initial residual = 0.0003376, Final residual = 2.58034e-05, No Iterations 6
smoothSolver:  Solving for k, Initial residual = 0.00619472, Final residual = 0.00049681, No Iterations 6
ExecutionTime = 0.189806 s  ClockTime = 1 s

Time = 65s

smoothSolver:  Solving for Ux, Initial residual = 0.00391364, Final residual = 0.000349484, No Iterations 5
smoothSolver:  Solving for Uy, Initial residual = 0.0131202, Final residual = 0.00101591, No Iterations 6
Pressure gradient source: uncorrected Ubar = 1.00036, pressure gradient = 2.09995
GAMG:  Solving for p, Initial residual = 0.000647231, Final residual = 6.1922e-05, No Iterations 5
time step continuity errors : sum local = 1.55679e-05, global = -2.41455e-17, cumulative = -3.06548e-17
Pressure gradient source: uncorrected Ubar = 1, pressure gradient = 2.44679
smoothSolver:  Solving for omega, Initial residual = 0.000330656, Final residual = 2.53138e-05, No Iterations 6
smoothSolver:  Solving for k, Initial residual = 0.00620293, Final residual = 0.000504884, No Iterations 6
ExecutionTime = 0.19241 s  ClockTime = 1 s

Time = 66s

smoothSolver:  Solving for Ux, Initial residual = 0.0038737, Final residual = 0.000347041, No Iterations 5
smoothSolver:  Solving for Uy, Initial residual = 0.0123052, Final residual = 0.000930855, No Iterations 6
Pressure gradient source: uncorrected Ubar = 1.00038, pressure gradient = 2.07842
GAMG:  Solving for p, Initial residual = 0.000574489, Final residual = 5.42812e-05, No Iterations 5
time step continuity errors : sum local = 1.32803e-05, global = -1.76606e-17, cumulative = -4.83154e-17
Pressure gradient source: uncorrected Ubar = 1, pressure gradient = 2.4434
smoothSolver:  Solving for omega, Initial residual = 0.000323972, Final residual = 2.46346e-05, No Iterations 6
smoothSolver:  Solving for k, Initial residual = 0.00616919, Final residual = 0.0005004, No Iterations 6
ExecutionTime = 0.195026 s  ClockTime = 1 s

Time = 67s

smoothSolver:  Solving for Ux, Initial residual = 0.00383455, Final residual = 0.000344647, No Iterations 5
smoothSolver:  Solving for Uy, Initial residual = 0.0117551, Final residual = 0.000875416, No Iterations 6
Pressure gradient source: uncorrected Ubar = 1.00038, pressure gradient = 2.0577
GAMG:  Solving for p, Initial residual = 0.000539028, Final residual = 3.99957e-05, No Iterations 7
time step continuity errors : sum local = 9.34334e-06, global = 3.84676e-17, cumulative = -9.84781e-18
Pressure gradient source: uncorrected Ubar = 1.00001, pressure gradient = 2.43784
smoothSolver:  Solving for omega, Initial residual = 0.000317521, Final residual = 2.43539e-05, No Iterations 6
smoothSolver:  Solving for k, Initial residual = 0.006146, Final residual = 0.000504029, No Iterations 6
ExecutionTime = 0.197737 s  ClockTime = 1 s

Time = 68s

smoothSolver:  Solving for Ux, Initial residual = 0.00379728, Final residual = 0.000342364, No Iterations 5
smoothSolver:  Solving for Uy, Initial residual = 0.0109748, Final residual = 0.000815128, No Iterations 6
Pressure gradient source: uncorrected Ubar = 1.00039, pressure gradient = 2.03645
GAMG:  Solving for p, Initial residual = 0.000563009, Final residual = 4.41135e-05, No Iterations 7
time step continuity errors : sum local = 8.77419e-06, global = -2.58042e-17, cumulative = -3.5652e-17
Pressure gradient source: uncorrected Ubar = 1.00001, pressure gradient = 2.43027
smoothSolver:  Solving for omega, Initial residual = 0.000310533, Final residual = 2.36267e-05, No Iterations 6
smoothSolver:  Solving for k, Initial residual = 0.00609154, Final residual = 0.000492696, No Iterations 6
ExecutionTime = 0.200433 s  ClockTime = 1 s

Time = 69s

smoothSolver:  Solving for Ux, Initial residual = 0.00376251, Final residual = 0.000340148, No Iterations 5
smoothSolver:  Solving for Uy, Initial residual = 0.00978999, Final residual = 0.000732708, No Iterations 6
Pressure gradient source: uncorrected Ubar = 1.00039, pressure gradient = 2.01893
GAMG:  Solving for p, Initial residual = 0.00055278, Final residual = 4.49128e-05, No Iterations 7
time step continuity errors : sum local = 7.53811e-06, global = 1.31768e-17, cumulative = -2.24753e-17
Pressure gradient source: uncorrected Ubar = 1.00001, pressure gradient = 2.42147
smoothSolver:  Solving for omega, Initial residual = 0.000304079, Final residual = 2.31218e-05, No Iterations 6
smoothSolver:  Solving for k, Initial residual = 0.0060689, Final residual = 0.000498176, No Iterations 6
ExecutionTime = 0.20312 s  ClockTime = 1 s

Time = 70s

smoothSolver:  Solving for Ux, Initial residual = 0.00372814, Final residual = 0.000338195, No Iterations 5
smoothSolver:  Solving for Uy, Initial residual = 0.00961811, Final residual = 0.000713892, No Iterations 6
Pressure gradient source: uncorrected Ubar = 1.00039, pressure gradient = 2.00001
GAMG:  Solving for p, Initial residual = 0.000595278, Final residual = 5.79721e-05, No Iterations 5
time step continuity errors : sum local = 9.9908e-06, global = 1.21812e-17, cumulative = -1.02941e-17
Pressure gradient source: uncorrected Ubar = 1.00001, pressure gradient = 2.41135
smoothSolver:  Solving for omega, Initial residual = 0.000298224, Final residual = 2.30895e-05, No Iterations 6
smoothSolver:  Solving for k, Initial residual = 0.00602238, Final residual = 0.000488546, No Iterations 6
ExecutionTime = 0.205759 s  ClockTime = 1 s

Time = 71s

smoothSolver:  Solving for Ux, Initial residual = 0.00369535, Final residual = 0.000336238, No Iterations 5
smoothSolver:  Solving for Uy, Initial residual = 0.00915205, Final residual = 0.000667037, No Iterations 6
Pressure gradient source: uncorrected Ubar = 1.0004, pressure gradient = 1.9743
GAMG:  Solving for p, Initial residual = 0.000583394, Final residual = 5.72319e-05, No Iterations 6
time step continuity errors : sum local = 1.00622e-05, global = 2.67425e-17, cumulative = 1.64484e-17
Pressure gradient source: uncorrected Ubar = 1.00001, pressure gradient = 2.39909
smoothSolver:  Solving for omega, Initial residual = 0.000291927, Final residual = 2.2373e-05, No Iterations 6
smoothSolver:  Solving for k, Initial residual = 0.00602379, Final residual = 0.000496689, No Iterations 6
ExecutionTime = 0.208807 s  ClockTime = 1 s

Time = 72s

smoothSolver:  Solving for Ux, Initial residual = 0.00366348, Final residual = 0.000334395, No Iterations 5
smoothSolver:  Solving for Uy, Initial residual = 0.00842978, Final residual = 0.000605974, No Iterations 6
Pressure gradient source: uncorrected Ubar = 1.0004, pressure gradient = 1.94722
GAMG:  Solving for p, Initial residual = 0.000458029, Final residual = 4.24893e-05, No Iterations 7
time step continuity errors : sum local = 7.53644e-06, global = 1.08179e-17, cumulative = 2.72663e-17
Pressure gradient source: uncorrected Ubar = 1.00001, pressure gradient = 2.38476
smoothSolver:  Solving for omega, Initial residual = 0.000286355, Final residual = 2.19276e-05, No Iterations 6
smoothSolver:  Solving for k, Initial residual = 0.00598072, Final residual = 0.000488974, No Iterations 6
ExecutionTime = 0.211949 s  ClockTime = 1 s

Time = 73s

smoothSolver:  Solving for Ux, Initial residual = 0.00363189, Final residual = 0.00033253, No Iterations 5
smoothSolver:  Solving for Uy, Initial residual = 0.00831682, Final residual = 0.000600825, No Iterations 6
Pressure gradient source: uncorrected Ubar = 1.0004, pressure gradient = 1.93086
GAMG:  Solving for p, Initial residual = 0.000450776, Final residual = 3.84305e-05, No Iterations 8
time step continuity errors : sum local = 7.04113e-06, global = 9.76078e-18, cumulative = 3.70271e-17
Pressure gradient source: uncorrected Ubar = 1.00001, pressure gradient = 2.37018
smoothSolver:  Solving for omega, Initial residual = 0.000282454, Final residual = 2.19499e-05, No Iterations 6
smoothSolver:  Solving for k, Initial residual = 0.00595247, Final residual = 0.000490401, No Iterations 6
ExecutionTime = 0.215133 s  ClockTime = 1 s

Time = 74s

smoothSolver:  Solving for Ux, Initial residual = 0.00360236, Final residual = 0.000330707, No Iterations 5
smoothSolver:  Solving for Uy, Initial residual = 0.00825088, Final residual = 0.000602634, No Iterations 6
Pressure gradient source: uncorrected Ubar = 1.0004, pressure gradient = 1.90483
GAMG:  Solving for p, Initial residual = 0.000398367, Final residual = 3.92185e-05, No Iterations 9
time step continuity errors : sum local = 7.2942e-06, global = 1.86517e-17, cumulative = 5.56787e-17
Pressure gradient source: uncorrected Ubar = 1.00001, pressure gradient = 2.35393
smoothSolver:  Solving for omega, Initial residual = 0.000277729, Final residual = 2.13206e-05, No Iterations 6
smoothSolver:  Solving for k, Initial residual = 0.00590229, Final residual = 0.000483017, No Iterations 6
ExecutionTime = 0.217986 s  ClockTime = 1 s

Time = 75s

smoothSolver:  Solving for Ux, Initial residual = 0.0035739, Final residual = 0.000329116, No Iterations 5
smoothSolver:  Solving for Uy, Initial residual = 0.00821808, Final residual = 0.0006039, No Iterations 6
Pressure gradient source: uncorrected Ubar = 1.0004, pressure gradient = 1.88038
GAMG:  Solving for p, Initial residual = 0.000388831, Final residual = 3.23154e-05, No Iterations 12
time step continuity errors : sum local = 7.02492e-06, global = -2.32989e-17, cumulative = 3.23798e-17
Pressure gradient source: uncorrected Ubar = 1.00001, pressure gradient = 2.33645
smoothSolver:  Solving for omega, Initial residual = 0.000273923, Final residual = 2.11752e-05, No Iterations 6
smoothSolver:  Solving for k, Initial residual = 0.00589401, Final residual = 0.000489627, No Iterations 6
ExecutionTime = 0.220933 s  ClockTime = 1 s

Time = 76s

smoothSolver:  Solving for Ux, Initial residual = 0.00354622, Final residual = 0.000327588, No Iterations 5
smoothSolver:  Solving for Uy, Initial residual = 0.00850177, Final residual = 0.000623912, No Iterations 6
Pressure gradient source: uncorrected Ubar = 1.0004, pressure gradient = 1.85775
GAMG:  Solving for p, Initial residual = 0.0004996, Final residual = 4.56013e-05, No Iterations 8
time step continuity errors : sum local = 9.43256e-06, global = 2.21838e-18, cumulative = 3.45982e-17
Pressure gradient source: uncorrected Ubar = 1.00002, pressure gradient = 2.31816
smoothSolver:  Solving for omega, Initial residual = 0.000270405, Final residual = 2.10776e-05, No Iterations 6
smoothSolver:  Solving for k, Initial residual = 0.00584629, Final residual = 0.000480928, No Iterations 6
ExecutionTime = 0.223696 s  ClockTime = 1 s

Time = 77s

smoothSolver:  Solving for Ux, Initial residual = 0.00351941, Final residual = 0.000326087, No Iterations 5
smoothSolver:  Solving for Uy, Initial residual = 0.00844649, Final residual = 0.000626207, No Iterations 6
Pressure gradient source: uncorrected Ubar = 1.0004, pressure gradient = 1.83082
GAMG:  Solving for p, Initial residual = 0.000414009, Final residual = 3.42808e-05, No Iterations 10
time step continuity errors : sum local = 7.00905e-06, global = -2.35962e-17, cumulative = 1.1002e-17
Pressure gradient source: uncorrected Ubar = 1.00002, pressure gradient = 2.29853
smoothSolver:  Solving for omega, Initial residual = 0.000266989, Final residual = 2.06747e-05, No Iterations 6
smoothSolver:  Solving for k, Initial residual = 0.005834, Final residual = 0.00048543, No Iterations 6
ExecutionTime = 0.226548 s  ClockTime = 1 s

Time = 78s

smoothSolver:  Solving for Ux, Initial residual = 0.00349379, Final residual = 0.000324672, No Iterations 5
smoothSolver:  Solving for Uy, Initial residual = 0.00806014, Final residual = 0.000611837, No Iterations 6
Pressure gradient source: uncorrected Ubar = 1.0004, pressure gradient = 1.79776
GAMG:  Solving for p, Initial residual = 0.0003743, Final residual = 3.72513e-05, No Iterations 10
time step continuity errors : sum local = 6.98804e-06, global = 2.03279e-17, cumulative = 3.13299e-17
Pressure gradient source: uncorrected Ubar = 1.00002, pressure gradient = 2.2768
smoothSolver:  Solving for omega, Initial residual = 0.000263196, Final residual = 2.02325e-05, No Iterations 6
smoothSolver:  Solving for k, Initial residual = 0.00578177, Final residual = 0.000475128, No Iterations 6
ExecutionTime = 0.229369 s  ClockTime = 1 s

Time = 79s

smoothSolver:  Solving for Ux, Initial residual = 0.00346911, Final residual = 0.000323359, No Iterations 5
smoothSolver:  Solving for Uy, Initial residual = 0.0078505, Final residual = 0.000600572, No Iterations 6
Pressure gradient source: uncorrected Ubar = 1.0004, pressure gradient = 1.77281
GAMG:  Solving for p, Initial residual = 0.00035585, Final residual = 2.94629e-05, No Iterations 12
time step continuity errors : sum local = 5.95934e-06, global = -3.63464e-17, cumulative = -5.01646e-18
Pressure gradient source: uncorrected Ubar = 1.00002, pressure gradient = 2.2545
smoothSolver:  Solving for omega, Initial residual = 0.000260327, Final residual = 2.03322e-05, No Iterations 6
smoothSolver:  Solving for k, Initial residual = 0.00576943, Final residual = 0.000482444, No Iterations 6
ExecutionTime = 0.232277 s  ClockTime = 1 s

Time = 80s

smoothSolver:  Solving for Ux, Initial residual = 0.00344545, Final residual = 0.000321999, No Iterations 5
smoothSolver:  Solving for Uy, Initial residual = 0.00772028, Final residual = 0.000607475, No Iterations 6
Pressure gradient source: uncorrected Ubar = 1.00039, pressure gradient = 1.75044
GAMG:  Solving for p, Initial residual = 0.000339067, Final residual = 2.88041e-05, No Iterations 12
time step continuity errors : sum local = 6.00517e-06, global = -1.90722e-17, cumulative = -2.40887e-17
Pressure gradient source: uncorrected Ubar = 1.00002, pressure gradient = 2.23207
smoothSolver:  Solving for omega, Initial residual = 0.000257566, Final residual = 2.02284e-05, No Iterations 6
smoothSolver:  Solving for k, Initial residual = 0.00572391, Final residual = 0.000472895, No Iterations 6
ExecutionTime = 0.235211 s  ClockTime = 1 s

Time = 81s

smoothSolver:  Solving for Ux, Initial residual = 0.00342261, Final residual = 0.000320822, No Iterations 5
smoothSolver:  Solving for Uy, Initial residual = 0.00793975, Final residual = 0.000635674, No Iterations 6
Pressure gradient source: uncorrected Ubar = 1.0004, pressure gradient = 1.71897
GAMG:  Solving for p, Initial residual = 0.000327934, Final residual = 2.85595e-05, No Iterations 12
time step continuity errors : sum local = 5.91038e-06, global = -8.67658e-18, cumulative = -3.27653e-17
Pressure gradient source: uncorrected Ubar = 1.00002, pressure gradient = 2.20814
smoothSolver:  Solving for omega, Initial residual = 0.00025436, Final residual = 1.98792e-05, No Iterations 6
smoothSolver:  Solving for k, Initial residual = 0.00570014, Final residual = 0.0004762, No Iterations 6
ExecutionTime = 0.238125 s  ClockTime = 1 s

Time = 82s

smoothSolver:  Solving for Ux, Initial residual = 0.00340025, Final residual = 0.000319706, No Iterations 5
smoothSolver:  Solving for Uy, Initial residual = 0.00812392, Final residual = 0.000626601, No Iterations 6
Pressure gradient source: uncorrected Ubar = 1.0004, pressure gradient = 1.6884
GAMG:  Solving for p, Initial residual = 0.000404871, Final residual = 3.26246e-05, No Iterations 10
time step continuity errors : sum local = 6.41155e-06, global = 1.70406e-17, cumulative = -1.57246e-17
Pressure gradient source: uncorrected Ubar = 1.00002, pressure gradient = 2.18307
smoothSolver:  Solving for omega, Initial residual = 0.000251105, Final residual = 1.94858e-05, No Iterations 6
smoothSolver:  Solving for k, Initial residual = 0.00566424, Final residual = 0.000470238, No Iterations 6
ExecutionTime = 0.240951 s  ClockTime = 1 s

Time = 83s

smoothSolver:  Solving for Ux, Initial residual = 0.00337931, Final residual = 0.000318628, No Iterations 5
smoothSolver:  Solving for Uy, Initial residual = 0.00826148, Final residual = 0.000658045, No Iterations 6
Pressure gradient source: uncorrected Ubar = 1.0004, pressure gradient = 1.65657
GAMG:  Solving for p, Initial residual = 0.000370557, Final residual = 3.61866e-05, No Iterations 10
time step continuity errors : sum local = 6.60228e-06, global = 5.80683e-18, cumulative = -9.91782e-18
Pressure gradient source: uncorrected Ubar = 1.00002, pressure gradient = 2.15684
smoothSolver:  Solving for omega, Initial residual = 0.000248355, Final residual = 1.92042e-05, No Iterations 6
smoothSolver:  Solving for k, Initial residual = 0.00564598, Final residual = 0.000473441, No Iterations 6
ExecutionTime = 0.243782 s  ClockTime = 1 s

Time = 84s

smoothSolver:  Solving for Ux, Initial residual = 0.00335884, Final residual = 0.000317633, No Iterations 5
smoothSolver:  Solving for Uy, Initial residual = 0.00799288, Final residual = 0.000640903, No Iterations 6
Pressure gradient source: uncorrected Ubar = 1.00039, pressure gradient = 1.6246
GAMG:  Solving for p, Initial residual = 0.000343842, Final residual = 2.70483e-05, No Iterations 12
time step continuity errors : sum local = 4.99667e-06, global = -3.86565e-18, cumulative = -1.37835e-17
Pressure gradient source: uncorrected Ubar = 1.00002, pressure gradient = 2.12958
smoothSolver:  Solving for omega, Initial residual = 0.000246263, Final residual = 1.92964e-05, No Iterations 6
smoothSolver:  Solving for k, Initial residual = 0.00559613, Final residual = 0.000464235, No Iterations 6
ExecutionTime = 0.246739 s  ClockTime = 1 s

Time = 85s

smoothSolver:  Solving for Ux, Initial residual = 0.00333875, Final residual = 0.000316633, No Iterations 5
smoothSolver:  Solving for Uy, Initial residual = 0.00796245, Final residual = 0.00064375, No Iterations 6
Pressure gradient source: uncorrected Ubar = 1.00039, pressure gradient = 1.59864
GAMG:  Solving for p, Initial residual = 0.000379639, Final residual = 3.09598e-05, No Iterations 12
time step continuity errors : sum local = 5.92871e-06, global = -6.9804e-18, cumulative = -2.07639e-17
Pressure gradient source: uncorrected Ubar = 1.00002, pressure gradient = 2.10237
smoothSolver:  Solving for omega, Initial residual = 0.000243593, Final residual = 1.89144e-05, No Iterations 6
smoothSolver:  Solving for k, Initial residual = 0.0055845, Final residual = 0.000469584, No Iterations 6
ExecutionTime = 0.24967 s  ClockTime = 1 s

Time = 86s

smoothSolver:  Solving for Ux, Initial residual = 0.0033197, Final residual = 0.000315698, No Iterations 5
smoothSolver:  Solving for Uy, Initial residual = 0.00823989, Final residual = 0.000670394, No Iterations 6
Pressure gradient source: uncorrected Ubar = 1.00039, pressure gradient = 1.56174
GAMG:  Solving for p, Initial residual = 0.000347611, Final residual = 3.22067e-05, No Iterations 12
time step continuity errors : sum local = 6.03226e-06, global = -8.19928e-18, cumulative = -2.89631e-17
Pressure gradient source: uncorrected Ubar = 1.00002, pressure gradient = 2.07349
smoothSolver:  Solving for omega, Initial residual = 0.000241126, Final residual = 1.8704e-05, No Iterations 6
smoothSolver:  Solving for k, Initial residual = 0.00553558, Final residual = 0.00046022, No Iterations 6
ExecutionTime = 0.252578 s  ClockTime = 1 s

Time = 87s

smoothSolver:  Solving for Ux, Initial residual = 0.0033017, Final residual = 0.000314843, No Iterations 5
smoothSolver:  Solving for Uy, Initial residual = 0.00788761, Final residual = 0.000644564, No Iterations 6
Pressure gradient source: uncorrected Ubar = 1.00038, pressure gradient = 1.53757
GAMG:  Solving for p, Initial residual = 0.000304179, Final residual = 2.896e-05, No Iterations 12
time step continuity errors : sum local = 5.35455e-06, global = 7.23995e-19, cumulative = -2.82391e-17
Pressure gradient source: uncorrected Ubar = 1.00002, pressure gradient = 2.04518
smoothSolver:  Solving for omega, Initial residual = 0.000239438, Final residual = 1.86898e-05, No Iterations 6
smoothSolver:  Solving for k, Initial residual = 0.00552002, Final residual = 0.000465025, No Iterations 6
ExecutionTime = 0.255524 s  ClockTime = 1 s

Time = 88s

smoothSolver:  Solving for Ux, Initial residual = 0.0032842, Final residual = 0.000314076, No Iterations 5
smoothSolver:  Solving for Uy, Initial residual = 0.00772753, Final residual = 0.000609716, No Iterations 6
Pressure gradient source: uncorrected Ubar = 1.00038, pressure gradient = 1.50145
GAMG:  Solving for p, Initial residual = 0.000394901, Final residual = 3.84118e-05, No Iterations 8
time step continuity errors : sum local = 6.4853e-06, global = -1.96526e-17, cumulative = -4.78918e-17
Pressure gradient source: uncorrected Ubar = 1.00002, pressure gradient = 2.01548
smoothSolver:  Solving for omega, Initial residual = 0.000237033, Final residual = 1.83192e-05, No Iterations 6
smoothSolver:  Solving for k, Initial residual = 0.00547869, Final residual = 0.00045741, No Iterations 6
ExecutionTime = 0.258254 s  ClockTime = 1 s

Time = 89s

smoothSolver:  Solving for Ux, Initial residual = 0.0032678, Final residual = 0.000313355, No Iterations 5
smoothSolver:  Solving for Uy, Initial residual = 0.0080128, Final residual = 0.000648775, No Iterations 6
Pressure gradient source: uncorrected Ubar = 1.00038, pressure gradient = 1.46612
GAMG:  Solving for p, Initial residual = 0.000353681, Final residual = 2.92743e-05, No Iterations 10
time step continuity errors : sum local = 5.00189e-06, global = -4.34464e-18, cumulative = -5.22364e-17
Pressure gradient source: uncorrected Ubar = 1.00002, pressure gradient = 1.98473
[...]
smoothSolver:  Solving for omega, Initial residual = 8.23907e-06, Final residual = 8.23907e-06, No Iterations 0
smoothSolver:  Solving for k, Initial residual = 2.36184e-05, Final residual = 8.79464e-06, No Iterations 2
ExecutionTime = 6.51801 s  ClockTime = 7 s

Time = 2441s

smoothSolver:  Solving for Ux, Initial residual = 2.53039e-06, Final residual = 2.53039e-06, No Iterations 0
smoothSolver:  Solving for Uy, Initial residual = 0.000114971, Final residual = 9.22093e-06, No Iterations 4
Pressure gradient source: uncorrected Ubar = 1, pressure gradient = 0.00402976
GAMG:  Solving for p, Initial residual = 2.93428e-05, Final residual = 2.69357e-06, No Iterations 8
time step continuity errors : sum local = 3.38762e-10, global = -3.7605e-19, cumulative = 2.78335e-17
Pressure gradient source: uncorrected Ubar = 1, pressure gradient = 0.00402966
smoothSolver:  Solving for omega, Initial residual = 8.2391e-06, Final residual = 8.2391e-06, No Iterations 0
smoothSolver:  Solving for k, Initial residual = 2.35785e-05, Final residual = 8.77995e-06, No Iterations 2
ExecutionTime = 6.52058 s  ClockTime = 7 s

Time = 2442s

smoothSolver:  Solving for Ux, Initial residual = 2.55061e-06, Final residual = 2.55061e-06, No Iterations 0
smoothSolver:  Solving for Uy, Initial residual = 0.000114075, Final residual = 9.08704e-06, No Iterations 4
Pressure gradient source: uncorrected Ubar = 1, pressure gradient = 0.00402966
GAMG:  Solving for p, Initial residual = 2.92535e-05, Final residual = 2.92224e-06, No Iterations 8
time step continuity errors : sum local = 3.65165e-10, global = 1.03324e-18, cumulative = 2.88667e-17
Pressure gradient source: uncorrected Ubar = 1, pressure gradient = 0.00402956
smoothSolver:  Solving for omega, Initial residual = 8.23912e-06, Final residual = 8.23912e-06, No Iterations 0
smoothSolver:  Solving for k, Initial residual = 2.35381e-05, Final residual = 8.76511e-06, No Iterations 2
ExecutionTime = 6.52316 s  ClockTime = 7 s

Time = 2443s

smoothSolver:  Solving for Ux, Initial residual = 2.57076e-06, Final residual = 2.57076e-06, No Iterations 0
smoothSolver:  Solving for Uy, Initial residual = 0.000113824, Final residual = 9.08162e-06, No Iterations 4
Pressure gradient source: uncorrected Ubar = 1, pressure gradient = 0.00402956
GAMG:  Solving for p, Initial residual = 2.92583e-05, Final residual = 2.70759e-06, No Iterations 9
time step continuity errors : sum local = 3.38095e-10, global = 3.76187e-18, cumulative = 3.26286e-17
Pressure gradient source: uncorrected Ubar = 1, pressure gradient = 0.00402946
smoothSolver:  Solving for omega, Initial residual = 8.23915e-06, Final residual = 8.23915e-06, No Iterations 0
smoothSolver:  Solving for k, Initial residual = 2.34973e-05, Final residual = 8.75012e-06, No Iterations 2
ExecutionTime = 6.52579 s  ClockTime = 7 s

Time = 2444s

smoothSolver:  Solving for Ux, Initial residual = 2.59083e-06, Final residual = 2.59083e-06, No Iterations 0
smoothSolver:  Solving for Uy, Initial residual = 0.000112766, Final residual = 8.97441e-06, No Iterations 4
Pressure gradient source: uncorrected Ubar = 1, pressure gradient = 0.00402946
GAMG:  Solving for p, Initial residual = 2.91768e-05, Final residual = 2.58822e-06, No Iterations 8
time step continuity errors : sum local = 3.24425e-10, global = -3.33624e-18, cumulative = 2.92924e-17
Pressure gradient source: uncorrected Ubar = 1, pressure gradient = 0.00402937
smoothSolver:  Solving for omega, Initial residual = 8.23917e-06, Final residual = 8.23917e-06, No Iterations 0
smoothSolver:  Solving for k, Initial residual = 2.34562e-05, Final residual = 8.73498e-06, No Iterations 2
ExecutionTime = 6.52835 s  ClockTime = 7 s

Time = 2445s

smoothSolver:  Solving for Ux, Initial residual = 2.61186e-06, Final residual = 2.61186e-06, No Iterations 0
smoothSolver:  Solving for Uy, Initial residual = 0.000112032, Final residual = 8.84303e-06, No Iterations 4
Pressure gradient source: uncorrected Ubar = 1, pressure gradient = 0.00402937
GAMG:  Solving for p, Initial residual = 2.90013e-05, Final residual = 2.67926e-06, No Iterations 8
time step continuity errors : sum local = 3.3716e-10, global = 6.92083e-18, cumulative = 3.62132e-17
Pressure gradient source: uncorrected Ubar = 1, pressure gradient = 0.00402927
smoothSolver:  Solving for omega, Initial residual = 8.2392e-06, Final residual = 8.2392e-06, No Iterations 0
smoothSolver:  Solving for k, Initial residual = 2.34147e-05, Final residual = 8.71969e-06, No Iterations 2
ExecutionTime = 6.53092 s  ClockTime = 7 s

Time = 2446s

smoothSolver:  Solving for Ux, Initial residual = 2.63349e-06, Final residual = 2.63349e-06, No Iterations 0
smoothSolver:  Solving for Uy, Initial residual = 0.000111242, Final residual = 8.72915e-06, No Iterations 4
Pressure gradient source: uncorrected Ubar = 1, pressure gradient = 0.00402927
GAMG:  Solving for p, Initial residual = 2.89096e-05, Final residual = 2.65851e-06, No Iterations 9
time step continuity errors : sum local = 3.32411e-10, global = 1.54693e-19, cumulative = 3.63679e-17
Pressure gradient source: uncorrected Ubar = 1, pressure gradient = 0.00402917
smoothSolver:  Solving for omega, Initial residual = 8.23923e-06, Final residual = 8.23923e-06, No Iterations 0
smoothSolver:  Solving for k, Initial residual = 2.33727e-05, Final residual = 8.70425e-06, No Iterations 2
ExecutionTime = 6.53356 s  ClockTime = 7 s

Time = 2447s

smoothSolver:  Solving for Ux, Initial residual = 2.65503e-06, Final residual = 2.65503e-06, No Iterations 0
smoothSolver:  Solving for Uy, Initial residual = 0.000110822, Final residual = 8.73231e-06, No Iterations 4
Pressure gradient source: uncorrected Ubar = 1, pressure gradient = 0.00402917
GAMG:  Solving for p, Initial residual = 2.88821e-05, Final residual = 2.545e-06, No Iterations 8
time step continuity errors : sum local = 3.19171e-10, global = -8.99959e-19, cumulative = 3.54679e-17
Pressure gradient source: uncorrected Ubar = 1, pressure gradient = 0.00402908
smoothSolver:  Solving for omega, Initial residual = 8.23925e-06, Final residual = 8.23925e-06, No Iterations 0
smoothSolver:  Solving for k, Initial residual = 2.33304e-05, Final residual = 8.68866e-06, No Iterations 2
ExecutionTime = 6.53624 s  ClockTime = 7 s

Time = 2448s

smoothSolver:  Solving for Ux, Initial residual = 2.67649e-06, Final residual = 2.67649e-06, No Iterations 0
smoothSolver:  Solving for Uy, Initial residual = 0.00011007, Final residual = 8.61917e-06, No Iterations 4
Pressure gradient source: uncorrected Ubar = 1, pressure gradient = 0.00402908
GAMG:  Solving for p, Initial residual = 2.87082e-05, Final residual = 2.84402e-06, No Iterations 8
time step continuity errors : sum local = 3.54398e-10, global = -2.7987e-19, cumulative = 3.51881e-17
Pressure gradient source: uncorrected Ubar = 1, pressure gradient = 0.00402898
smoothSolver:  Solving for omega, Initial residual = 8.23928e-06, Final residual = 8.23928e-06, No Iterations 0
smoothSolver:  Solving for k, Initial residual = 2.32878e-05, Final residual = 8.67292e-06, No Iterations 2
ExecutionTime = 6.53884 s  ClockTime = 7 s

Time = 2449s

smoothSolver:  Solving for Ux, Initial residual = 2.69786e-06, Final residual = 2.69786e-06, No Iterations 0
smoothSolver:  Solving for Uy, Initial residual = 0.000109711, Final residual = 8.59656e-06, No Iterations 4
Pressure gradient source: uncorrected Ubar = 1, pressure gradient = 0.00402898
GAMG:  Solving for p, Initial residual = 2.87064e-05, Final residual = 2.66992e-06, No Iterations 9
time step continuity errors : sum local = 3.32451e-10, global = 1.08676e-17, cumulative = 4.60557e-17
Pressure gradient source: uncorrected Ubar = 1, pressure gradient = 0.00402888
smoothSolver:  Solving for omega, Initial residual = 8.23931e-06, Final residual = 8.23931e-06, No Iterations 0
smoothSolver:  Solving for k, Initial residual = 2.32447e-05, Final residual = 8.65704e-06, No Iterations 2
ExecutionTime = 6.54148 s  ClockTime = 7 s

Time = 2450s

smoothSolver:  Solving for Ux, Initial residual = 2.72012e-06, Final residual = 2.72012e-06, No Iterations 0
smoothSolver:  Solving for Uy, Initial residual = 0.000108649, Final residual = 8.49137e-06, No Iterations 4
Pressure gradient source: uncorrected Ubar = 1, pressure gradient = 0.00402888
GAMG:  Solving for p, Initial residual = 2.86224e-05, Final residual = 2.5465e-06, No Iterations 8
time step continuity errors : sum local = 3.18853e-10, global = 5.93007e-19, cumulative = 4.66487e-17
Pressure gradient source: uncorrected Ubar = 1, pressure gradient = 0.00402879
smoothSolver:  Solving for omega, Initial residual = 8.23933e-06, Final residual = 8.23933e-06, No Iterations 0
smoothSolver:  Solving for k, Initial residual = 2.32012e-05, Final residual = 8.64101e-06, No Iterations 2
ExecutionTime = 6.54405 s  ClockTime = 7 s

Time = 2451s

smoothSolver:  Solving for Ux, Initial residual = 2.74292e-06, Final residual = 2.74292e-06, No Iterations 0
smoothSolver:  Solving for Uy, Initial residual = 0.000107778, Final residual = 8.34652e-06, No Iterations 4
Pressure gradient source: uncorrected Ubar = 1, pressure gradient = 0.00402879
GAMG:  Solving for p, Initial residual = 2.84351e-05, Final residual = 2.575e-06, No Iterations 9
time step continuity errors : sum local = 3.20992e-10, global = -4.35673e-19, cumulative = 4.6213e-17
Pressure gradient source: uncorrected Ubar = 1, pressure gradient = 0.00402869
smoothSolver:  Solving for omega, Initial residual = 8.23936e-06, Final residual = 8.23936e-06, No Iterations 0
smoothSolver:  Solving for k, Initial residual = 2.31574e-05, Final residual = 8.62484e-06, No Iterations 2
ExecutionTime = 6.54668 s  ClockTime = 7 s

Time = 2452s

smoothSolver:  Solving for Ux, Initial residual = 2.76562e-06, Final residual = 2.76562e-06, No Iterations 0
smoothSolver:  Solving for Uy, Initial residual = 0.000107153, Final residual = 8.31057e-06, No Iterations 4
Pressure gradient source: uncorrected Ubar = 1, pressure gradient = 0.00402869
GAMG:  Solving for p, Initial residual = 2.83774e-05, Final residual = 2.49052e-06, No Iterations 8
time step continuity errors : sum local = 3.11832e-10, global = -5.51066e-18, cumulative = 4.07023e-17
Pressure gradient source: uncorrected Ubar = 1, pressure gradient = 0.00402859
smoothSolver:  Solving for omega, Initial residual = 8.23939e-06, Final residual = 8.23939e-06, No Iterations 0
smoothSolver:  Solving for k, Initial residual = 2.31132e-05, Final residual = 8.60853e-06, No Iterations 2
ExecutionTime = 6.54924 s  ClockTime = 7 s

Time = 2453s

smoothSolver:  Solving for Ux, Initial residual = 2.78825e-06, Final residual = 2.78825e-06, No Iterations 0
smoothSolver:  Solving for Uy, Initial residual = 0.000106413, Final residual = 8.19808e-06, No Iterations 4
Pressure gradient source: uncorrected Ubar = 1, pressure gradient = 0.00402859
GAMG:  Solving for p, Initial residual = 2.81828e-05, Final residual = 2.54534e-06, No Iterations 9
time step continuity errors : sum local = 3.17061e-10, global = 4.0221e-18, cumulative = 4.47244e-17
Pressure gradient source: uncorrected Ubar = 1, pressure gradient = 0.0040285
smoothSolver:  Solving for omega, Initial residual = 8.23942e-06, Final residual = 8.23942e-06, No Iterations 0
smoothSolver:  Solving for k, Initial residual = 2.30686e-05, Final residual = 8.59208e-06, No Iterations 2
ExecutionTime = 6.55186 s  ClockTime = 7 s

Time = 2454s

smoothSolver:  Solving for Ux, Initial residual = 2.81132e-06, Final residual = 2.81132e-06, No Iterations 0
smoothSolver:  Solving for Uy, Initial residual = 0.000105821, Final residual = 8.16737e-06, No Iterations 4
Pressure gradient source: uncorrected Ubar = 1, pressure gradient = 0.0040285
GAMG:  Solving for p, Initial residual = 2.81347e-05, Final residual = 2.4661e-06, No Iterations 8
time step continuity errors : sum local = 3.08568e-10, global = -8.63436e-19, cumulative = 4.3861e-17
Pressure gradient source: uncorrected Ubar = 1, pressure gradient = 0.0040284
smoothSolver:  Solving for omega, Initial residual = 8.23944e-06, Final residual = 8.23944e-06, No Iterations 0
smoothSolver:  Solving for k, Initial residual = 2.30237e-05, Final residual = 8.57549e-06, No Iterations 2
ExecutionTime = 6.55443 s  ClockTime = 7 s

Time = 2455s

smoothSolver:  Solving for Ux, Initial residual = 2.83441e-06, Final residual = 2.83441e-06, No Iterations 0
smoothSolver:  Solving for Uy, Initial residual = 0.000105075, Final residual = 8.05025e-06, No Iterations 4
Pressure gradient source: uncorrected Ubar = 1, pressure gradient = 0.0040284
GAMG:  Solving for p, Initial residual = 2.79541e-05, Final residual = 2.52937e-06, No Iterations 9
time step continuity errors : sum local = 3.14731e-10, global = -2.46381e-18, cumulative = 4.13972e-17
Pressure gradient source: uncorrected Ubar = 1, pressure gradient = 0.00402831
smoothSolver:  Solving for omega, Initial residual = 8.23947e-06, Final residual = 8.23947e-06, No Iterations 0
smoothSolver:  Solving for k, Initial residual = 2.29783e-05, Final residual = 8.55875e-06, No Iterations 2
ExecutionTime = 6.55707 s  ClockTime = 7 s

Time = 2456s

smoothSolver:  Solving for Ux, Initial residual = 2.85856e-06, Final residual = 2.85856e-06, No Iterations 0
smoothSolver:  Solving for Uy, Initial residual = 0.000104516, Final residual = 8.02141e-06, No Iterations 4
Pressure gradient source: uncorrected Ubar = 1, pressure gradient = 0.00402831
GAMG:  Solving for p, Initial residual = 2.79232e-05, Final residual = 2.44855e-06, No Iterations 8
time step continuity errors : sum local = 3.06168e-10, global = 1.24684e-18, cumulative = 4.2644e-17
Pressure gradient source: uncorrected Ubar = 1, pressure gradient = 0.00402821
smoothSolver:  Solving for omega, Initial residual = 8.2395e-06, Final residual = 8.2395e-06, No Iterations 0
smoothSolver:  Solving for k, Initial residual = 2.29326e-05, Final residual = 8.54187e-06, No Iterations 2
ExecutionTime = 6.55964 s  ClockTime = 7 s

Time = 2457s

smoothSolver:  Solving for Ux, Initial residual = 2.8829e-06, Final residual = 2.8829e-06, No Iterations 0
smoothSolver:  Solving for Uy, Initial residual = 0.000103717, Final residual = 7.89793e-06, No Iterations 4
Pressure gradient source: uncorrected Ubar = 1, pressure gradient = 0.00402821
GAMG:  Solving for p, Initial residual = 2.77683e-05, Final residual = 2.51561e-06, No Iterations 9
time step continuity errors : sum local = 3.12713e-10, global = -1.77211e-18, cumulative = 4.08719e-17
Pressure gradient source: uncorrected Ubar = 1, pressure gradient = 0.00402812
smoothSolver:  Solving for omega, Initial residual = 8.23953e-06, Final residual = 8.23953e-06, No Iterations 0
smoothSolver:  Solving for k, Initial residual = 2.28866e-05, Final residual = 8.52485e-06, No Iterations 2
ExecutionTime = 6.56226 s  ClockTime = 7 s

Time = 2458s

smoothSolver:  Solving for Ux, Initial residual = 2.90713e-06, Final residual = 2.90713e-06, No Iterations 0
smoothSolver:  Solving for Uy, Initial residual = 0.000103174, Final residual = 7.87272e-06, No Iterations 4
Pressure gradient source: uncorrected Ubar = 1, pressure gradient = 0.00402812
GAMG:  Solving for p, Initial residual = 2.77433e-05, Final residual = 2.60527e-06, No Iterations 8
time step continuity errors : sum local = 3.231e-10, global = -8.77749e-19, cumulative = 3.99942e-17
Pressure gradient source: uncorrected Ubar = 1, pressure gradient = 0.00402802
smoothSolver:  Solving for omega, Initial residual = 8.23956e-06, Final residual = 8.23956e-06, No Iterations 0
smoothSolver:  Solving for k, Initial residual = 2.28401e-05, Final residual = 8.50768e-06, No Iterations 2
ExecutionTime = 6.56485 s  ClockTime = 7 s

Time = 2459s

smoothSolver:  Solving for Ux, Initial residual = 2.93127e-06, Final residual = 2.93127e-06, No Iterations 0
smoothSolver:  Solving for Uy, Initial residual = 0.000102674, Final residual = 7.81565e-06, No Iterations 4
Pressure gradient source: uncorrected Ubar = 1, pressure gradient = 0.00402802
GAMG:  Solving for p, Initial residual = 2.76774e-05, Final residual = 2.52132e-06, No Iterations 9
time step continuity errors : sum local = 3.12364e-10, global = 3.81987e-18, cumulative = 4.3814e-17
Pressure gradient source: uncorrected Ubar = 1, pressure gradient = 0.00402793
smoothSolver:  Solving for omega, Initial residual = 8.23959e-06, Final residual = 8.23959e-06, No Iterations 0
smoothSolver:  Solving for k, Initial residual = 2.27933e-05, Final residual = 8.49037e-06, No Iterations 2
ExecutionTime = 6.56747 s  ClockTime = 7 s

Time = 2460s

smoothSolver:  Solving for Ux, Initial residual = 2.9553e-06, Final residual = 2.9553e-06, No Iterations 0
smoothSolver:  Solving for Uy, Initial residual = 0.00010168, Final residual = 7.71235e-06, No Iterations 4
Pressure gradient source: uncorrected Ubar = 1, pressure gradient = 0.00402793
GAMG:  Solving for p, Initial residual = 2.75971e-05, Final residual = 2.61644e-06, No Iterations 8
time step continuity errors : sum local = 3.23861e-10, global = 5.58056e-19, cumulative = 4.43721e-17
Pressure gradient source: uncorrected Ubar = 1, pressure gradient = 0.00402784
smoothSolver:  Solving for omega, Initial residual = 8.23962e-06, Final residual = 8.23962e-06, No Iterations 0
smoothSolver:  Solving for k, Initial residual = 2.27461e-05, Final residual = 8.47292e-06, No Iterations 2
ExecutionTime = 6.57007 s  ClockTime = 7 s

Time = 2461s

smoothSolver:  Solving for Ux, Initial residual = 2.97923e-06, Final residual = 2.97923e-06, No Iterations 0
smoothSolver:  Solving for Uy, Initial residual = 0.000101164, Final residual = 7.6421e-06, No Iterations 4
Pressure gradient source: uncorrected Ubar = 1, pressure gradient = 0.00402784
GAMG:  Solving for p, Initial residual = 2.75436e-05, Final residual = 2.51839e-06, No Iterations 9
time step continuity errors : sum local = 3.11644e-10, global = 5.9291e-19, cumulative = 4.4965e-17
Pressure gradient source: uncorrected Ubar = 1, pressure gradient = 0.00402774
smoothSolver:  Solving for omega, Initial residual = 8.23965e-06, Final residual = 8.23965e-06, No Iterations 0
smoothSolver:  Solving for k, Initial residual = 2.26986e-05, Final residual = 8.45532e-06, No Iterations 2
ExecutionTime = 6.57268 s  ClockTime = 7 s

Time = 2462s

smoothSolver:  Solving for Ux, Initial residual = 3.00328e-06, Final residual = 3.00328e-06, No Iterations 0
smoothSolver:  Solving for Uy, Initial residual = 0.000100217, Final residual = 7.54622e-06, No Iterations 4
Pressure gradient source: uncorrected Ubar = 1, pressure gradient = 0.00402774
GAMG:  Solving for p, Initial residual = 2.74479e-05, Final residual = 2.62138e-06, No Iterations 8
time step continuity errors : sum local = 3.24111e-10, global = -1.40389e-18, cumulative = 4.35611e-17
Pressure gradient source: uncorrected Ubar = 1, pressure gradient = 0.00402765
smoothSolver:  Solving for omega, Initial residual = 8.23968e-06, Final residual = 8.23968e-06, No Iterations 0
smoothSolver:  Solving for k, Initial residual = 2.26507e-05, Final residual = 8.43759e-06, No Iterations 2
ExecutionTime = 6.57533 s  ClockTime = 7 s

Time = 2463s

smoothSolver:  Solving for Ux, Initial residual = 3.02834e-06, Final residual = 3.02834e-06, No Iterations 0
smoothSolver:  Solving for Uy, Initial residual = 9.97673e-05, Final residual = 7.48832e-06, No Iterations 4
Pressure gradient source: uncorrected Ubar = 1, pressure gradient = 0.00402765
GAMG:  Solving for p, Initial residual = 2.74126e-05, Final residual = 2.51065e-06, No Iterations 9
time step continuity errors : sum local = 3.10333e-10, global = -3.7455e-18, cumulative = 3.98156e-17
Pressure gradient source: uncorrected Ubar = 1, pressure gradient = 0.00402756
smoothSolver:  Solving for omega, Initial residual = 8.23971e-06, Final residual = 8.23971e-06, No Iterations 0
smoothSolver:  Solving for k, Initial residual = 2.26024e-05, Final residual = 8.41972e-06, No Iterations 2
ExecutionTime = 6.57796 s  ClockTime = 7 s


SIMPLE solution converged in 2463 iterations

End

