/*---------------------------------------------------------------------------*\
  =========                 |
  \\      /  F ield         | OpenFOAM: The Open Source CFD Toolbox
   \\    /   O peration     | Website:  https://openfoam.org
    \\  /    A nd           | Version:  10
     \\/     M anipulation  |
\*---------------------------------------------------------------------------*/
Build  : 10-e450dce21ea5
Exec   : blockMesh
Date   : Feb 20 2023
Time   : 14:07:11
Host   : "w530-R9YK46P"
PID    : 18292
I/O    : uncollated
Case   : /home/jdmezazeron/gitDanielMezaZ/turbulenceVisualized/Data/SimulationFiles/K6_Re197
nProcs : 1
sigFpe : Enabling floating point exception trapping (FOAM_SIGFPE).
fileModificationChecking : Monitoring run-time modified files using timeStampMaster (fileModificationSkew 10)
allowSystemOperations : Allowing user-supplied system call operations

// * * * * * * * * * * * * * * * * * * * * * * * * * * * * * * * * * * * * * //
Create time

Deleting polyMesh directory
    "/home/jdmezazeron/gitDanielMezaZ/turbulenceVisualized/Data/SimulationFiles/K6_Re197/constant/polyMesh"
Reading "blockMeshDict"

Creating block mesh from
    "system/blockMeshDict"
Creating block edges
No non-planar block faces defined
Creating topology blocks
Creating topology patches

Creating block mesh topology

Check topology

	Basic statistics
		Number of internal faces : 0
		Number of boundary faces : 6
		Number of defined boundary faces : 6
		Number of undefined boundary faces : 0
	Checking patch -> block consistency

Creating block offsets
Creating merge list .

Creating polyMesh from blockMesh
Creating patches
Creating cells
Creating points with scale 1
    Block 0 cell size :
        i : 0.5
        j : 0.00461374 .. 0.018455
        k : 2

Detected cyclic patches; ordering boundary faces

Writing polyMesh
----------------
Mesh Information
----------------
  boundingBox: (-1 0 -1) (1 1 1)
  nPoints: 1010
  nCells: 400
  nFaces: 1704
  nInternalFaces: 696
----------------
Patches
----------------
  patch 0 (start: 696 size: 100) name: inlet
  patch 1 (start: 796 size: 100) name: outlet
  patch 2 (start: 896 size: 4) name: fixedWalls-bottom
  patch 3 (start: 900 size: 4) name: fixedWalls-top
  patch 4 (start: 904 size: 800) name: frontAndBack

End

/*---------------------------------------------------------------------------*\
  =========                 |
  \\      /  F ield         | OpenFOAM: The Open Source CFD Toolbox
   \\    /   O peration     | Website:  https://openfoam.org
    \\  /    A nd           | Version:  10
     \\/     M anipulation  |
\*---------------------------------------------------------------------------*/
Build  : 10-e450dce21ea5
Exec   : simpleFoam
Date   : Feb 20 2023
Time   : 14:07:11
Host   : "w530-R9YK46P"
PID    : 18293
I/O    : uncollated
Case   : /home/jdmezazeron/gitDanielMezaZ/turbulenceVisualized/Data/SimulationFiles/K6_Re197
nProcs : 1
sigFpe : Enabling floating point exception trapping (FOAM_SIGFPE).
fileModificationChecking : Monitoring run-time modified files using timeStampMaster (fileModificationSkew 10)
allowSystemOperations : Allowing user-supplied system call operations

// * * * * * * * * * * * * * * * * * * * * * * * * * * * * * * * * * * * * * //
Create time

Create mesh for time = 0


SIMPLE: Convergence criteria found
        U: tolerance 0.0001
        p: tolerance 0.01
        omega: tolerance 0.0001

Reading field p

Reading field U

Reading/calculating face flux field phi

Selecting viscosity model Newtonian
Selecting turbulence model type RAS
Selecting RAS turbulence model kOmegaSST
Selecting patchDistMethod meshWave
RAS
{
    RASModel        kOmegaSST;
    turbulence      on;
    printCoeffs     on;
    alphaK1         0.85;
    alphaK2         1;
    alphaOmega1     0.5;
    alphaOmega2     0.856;
    gamma1          0.555556;
    gamma2          0.44;
    beta1           0.075;
    beta2           0.0828;
    betaStar        0.09;
    a1              0.31;
    b1              1;
    c1              10;
    F3              false;
}

No MRF models present

--> FOAM Warning : Creating fvModels from "system/fvOptions" rather than constant/fvModels
No fvModels present
--> FOAM Warning : Creating fvConstraints from "system/fvOptions"

Selecting finite volume constraint type meanVelocityForce
    Name: momentumSource
    - selecting all cells
    - selected 400 cell(s) with volume 4
    Initial pressure gradient = 0


Starting time loop

turbulenceFields stressComponents: storing fields:
    R

Time = 1s

smoothSolver:  Solving for Ux, Initial residual = 0, Final residual = 0, No Iterations 0
smoothSolver:  Solving for Uy, Initial residual = 0, Final residual = 0, No Iterations 0
Pressure gradient source: uncorrected Ubar = 0, pressure gradient = 1822.02
GAMG:  Solving for p, Initial residual = 0.999996, Final residual = 0.0776107, No Iterations 3
time step continuity errors : sum local = 8.34047e-17, global = 4.33047e-18, cumulative = 4.33047e-18
Pressure gradient source: uncorrected Ubar = 0.884647, pressure gradient = 210.175
smoothSolver:  Solving for omega, Initial residual = 0.0853022, Final residual = 0.00515421, No Iterations 3
smoothSolver:  Solving for k, Initial residual = 1, Final residual = 0.0570793, No Iterations 2
ExecutionTime = 0.013988 s  ClockTime = 0 s

Time = 2s

smoothSolver:  Solving for Ux, Initial residual = 0.933753, Final residual = 0.0795001, No Iterations 6
smoothSolver:  Solving for Uy, Initial residual = 1, Final residual = 0.0794786, No Iterations 6
Pressure gradient source: uncorrected Ubar = 11.2526, pressure gradient = -1576.78
GAMG:  Solving for p, Initial residual = 1, Final residual = 0.0883427, No Iterations 16
time step continuity errors : sum local = 0.00394528, global = 9.47322e-18, cumulative = 1.38037e-17
Pressure gradient source: uncorrected Ubar = 2.29103, pressure gradient = -14.8422
smoothSolver:  Solving for omega, Initial residual = 0.198099, Final residual = 0.000782321, No Iterations 1
smoothSolver:  Solving for k, Initial residual = 0.672871, Final residual = 0.0193836, No Iterations 1
ExecutionTime = 0.017201 s  ClockTime = 0 s

Time = 3s

smoothSolver:  Solving for Ux, Initial residual = 0.337141, Final residual = 0.0321765, No Iterations 5
smoothSolver:  Solving for Uy, Initial residual = 0.306083, Final residual = 0.0240273, No Iterations 5
Pressure gradient source: uncorrected Ubar = 0.348102, pressure gradient = 101.652
GAMG:  Solving for p, Initial residual = 0.199885, Final residual = 0.0157669, No Iterations 7
time step continuity errors : sum local = 0.00143551, global = 6.24009e-18, cumulative = 2.00438e-17
Pressure gradient source: uncorrected Ubar = 0.911581, pressure gradient = 0.95832
smoothSolver:  Solving for omega, Initial residual = 0.00928941, Final residual = 0.000181822, No Iterations 1
smoothSolver:  Solving for k, Initial residual = 0.0568109, Final residual = 0.00358328, No Iterations 2
ExecutionTime = 0.019835 s  ClockTime = 0 s

Time = 4s

smoothSolver:  Solving for Ux, Initial residual = 0.0469523, Final residual = 0.00386838, No Iterations 4
smoothSolver:  Solving for Uy, Initial residual = 0.148265, Final residual = 0.0132075, No Iterations 5
Pressure gradient source: uncorrected Ubar = 1.02154, pressure gradient = -2.73266
GAMG:  Solving for p, Initial residual = 0.200602, Final residual = 0.0183638, No Iterations 15
time step continuity errors : sum local = 0.00166785, global = 3.64563e-18, cumulative = 2.36894e-17
Pressure gradient source: uncorrected Ubar = 1.00274, pressure gradient = 0.488088
smoothSolver:  Solving for omega, Initial residual = 0.00800423, Final residual = 0.000137493, No Iterations 1
smoothSolver:  Solving for k, Initial residual = 0.0174868, Final residual = 0.00162633, No Iterations 4
ExecutionTime = 0.022808 s  ClockTime = 0 s

Time = 5s

smoothSolver:  Solving for Ux, Initial residual = 0.0264459, Final residual = 0.00249616, No Iterations 4
smoothSolver:  Solving for Uy, Initial residual = 0.0896972, Final residual = 0.00813132, No Iterations 5
Pressure gradient source: uncorrected Ubar = 0.999094, pressure gradient = 0.64223
GAMG:  Solving for p, Initial residual = 0.222462, Final residual = 0.0201844, No Iterations 16
time step continuity errors : sum local = 0.00173289, global = -1.32137e-17, cumulative = 1.04757e-17
Pressure gradient source: uncorrected Ubar = 0.999688, pressure gradient = 0.541103
smoothSolver:  Solving for omega, Initial residual = 0.00327514, Final residual = 8.16571e-05, No Iterations 1
smoothSolver:  Solving for k, Initial residual = 0.0144143, Final residual = 0.00127475, No Iterations 5
ExecutionTime = 0.02591 s  ClockTime = 0 s

Time = 6s

smoothSolver:  Solving for Ux, Initial residual = 0.0220144, Final residual = 0.00150321, No Iterations 5
smoothSolver:  Solving for Uy, Initial residual = 0.115047, Final residual = 0.0105399, No Iterations 5
Pressure gradient source: uncorrected Ubar = 0.999897, pressure gradient = 0.558978
GAMG:  Solving for p, Initial residual = 0.230782, Final residual = 0.0212564, No Iterations 12
time step continuity errors : sum local = 0.00116586, global = 1.7036e-17, cumulative = 2.75116e-17
Pressure gradient source: uncorrected Ubar = 0.999902, pressure gradient = 0.558007
smoothSolver:  Solving for omega, Initial residual = 0.00215753, Final residual = 5.30255e-05, No Iterations 1
smoothSolver:  Solving for k, Initial residual = 0.0241197, Final residual = 0.00166683, No Iterations 6
ExecutionTime = 0.02877 s  ClockTime = 0 s

Time = 7s

smoothSolver:  Solving for Ux, Initial residual = 0.0218277, Final residual = 0.00147422, No Iterations 5
smoothSolver:  Solving for Uy, Initial residual = 0.0525732, Final residual = 0.00345332, No Iterations 5
Pressure gradient source: uncorrected Ubar = 0.997347, pressure gradient = 1.04093
GAMG:  Solving for p, Initial residual = 0.210242, Final residual = 0.0177206, No Iterations 18
time step continuity errors : sum local = 0.00055255, global = 5.09575e-18, cumulative = 3.26074e-17
Pressure gradient source: uncorrected Ubar = 0.999598, pressure gradient = 0.631135
smoothSolver:  Solving for omega, Initial residual = 0.00108954, Final residual = 2.93899e-05, No Iterations 1
smoothSolver:  Solving for k, Initial residual = 0.0380384, Final residual = 0.0026798, No Iterations 6
ExecutionTime = 0.0319 s  ClockTime = 0 s

Time = 8s

smoothSolver:  Solving for Ux, Initial residual = 0.0216185, Final residual = 0.00151138, No Iterations 5
smoothSolver:  Solving for Uy, Initial residual = 0.0575852, Final residual = 0.00424424, No Iterations 5
Pressure gradient source: uncorrected Ubar = 0.999838, pressure gradient = 0.662519
GAMG:  Solving for p, Initial residual = 0.0772749, Final residual = 0.00677233, No Iterations 14
time step continuity errors : sum local = 0.000241689, global = 5.3866e-19, cumulative = 3.31461e-17
Pressure gradient source: uncorrected Ubar = 0.999928, pressure gradient = 0.645185
smoothSolver:  Solving for omega, Initial residual = 0.000636429, Final residual = 1.8949e-05, No Iterations 1
smoothSolver:  Solving for k, Initial residual = 0.0536319, Final residual = 0.00393836, No Iterations 6
ExecutionTime = 0.034832 s  ClockTime = 0 s

Time = 9s

smoothSolver:  Solving for Ux, Initial residual = 0.0219078, Final residual = 0.00150465, No Iterations 5
smoothSolver:  Solving for Uy, Initial residual = 0.0730421, Final residual = 0.00612706, No Iterations 5
Pressure gradient source: uncorrected Ubar = 0.999037, pressure gradient = 0.847399
GAMG:  Solving for p, Initial residual = 0.0569464, Final residual = 0.00550826, No Iterations 7
time step continuity errors : sum local = 0.000208137, global = -8.9345e-18, cumulative = 2.42116e-17
Pressure gradient source: uncorrected Ubar = 0.999833, pressure gradient = 0.680309
smoothSolver:  Solving for omega, Initial residual = 0.000344471, Final residual = 1.12617e-05, No Iterations 1
smoothSolver:  Solving for k, Initial residual = 0.062481, Final residual = 0.00464604, No Iterations 6
ExecutionTime = 0.037478 s  ClockTime = 0 s

Time = 10s

smoothSolver:  Solving for Ux, Initial residual = 0.0226436, Final residual = 0.00152447, No Iterations 5
smoothSolver:  Solving for Uy, Initial residual = 0.0884478, Final residual = 0.00715488, No Iterations 5
Pressure gradient source: uncorrected Ubar = 0.999185, pressure gradient = 0.865085
GAMG:  Solving for p, Initial residual = 0.0860435, Final residual = 0.00852077, No Iterations 10
time step continuity errors : sum local = 0.000281347, global = -4.27582e-18, cumulative = 1.99357e-17
Pressure gradient source: uncorrected Ubar = 0.999857, pressure gradient = 0.712665
smoothSolver:  Solving for omega, Initial residual = 0.000194635, Final residual = 7.74346e-06, No Iterations 1
smoothSolver:  Solving for k, Initial residual = 0.0482579, Final residual = 0.00380366, No Iterations 6
ExecutionTime = 0.04027 s  ClockTime = 0 s

Time = 11s

smoothSolver:  Solving for Ux, Initial residual = 0.0223081, Final residual = 0.0014897, No Iterations 5
smoothSolver:  Solving for Uy, Initial residual = 0.10736, Final residual = 0.0082844, No Iterations 5
Pressure gradient source: uncorrected Ubar = 1.00051, pressure gradient = 0.590958
GAMG:  Solving for p, Initial residual = 0.112528, Final residual = 0.0102774, No Iterations 9
time step continuity errors : sum local = 0.000260001, global = 1.03338e-18, cumulative = 2.09691e-17
Pressure gradient source: uncorrected Ubar = 1.00003, pressure gradient = 0.705725
smoothSolver:  Solving for omega, Initial residual = 0.000108466, Final residual = 5.08175e-06, No Iterations 1
smoothSolver:  Solving for k, Initial residual = 0.034534, Final residual = 0.00272219, No Iterations 6
ExecutionTime = 0.043019 s  ClockTime = 0 s

Time = 12s

smoothSolver:  Solving for Ux, Initial residual = 0.0209698, Final residual = 0.00140691, No Iterations 5
smoothSolver:  Solving for Uy, Initial residual = 0.124996, Final residual = 0.00939639, No Iterations 5
Pressure gradient source: uncorrected Ubar = 1.00126, pressure gradient = 0.385714
GAMG:  Solving for p, Initial residual = 0.134663, Final residual = 0.0121522, No Iterations 9
time step continuity errors : sum local = 0.000223803, global = 9.1649e-18, cumulative = 3.0134e-17
Pressure gradient source: uncorrected Ubar = 1.00013, pressure gradient = 0.67351
smoothSolver:  Solving for omega, Initial residual = 6.13798e-05, Final residual = 3.79989e-06, No Iterations 1
smoothSolver:  Solving for k, Initial residual = 0.025216, Final residual = 0.00203838, No Iterations 6
ExecutionTime = 0.045738 s  ClockTime = 0 s

Time = 13s

smoothSolver:  Solving for Ux, Initial residual = 0.0196025, Final residual = 0.00132351, No Iterations 5
smoothSolver:  Solving for Uy, Initial residual = 0.127469, Final residual = 0.0105145, No Iterations 5
Pressure gradient source: uncorrected Ubar = 1.00153, pressure gradient = 0.269487
GAMG:  Solving for p, Initial residual = 0.129018, Final residual = 0.0117844, No Iterations 10
time step continuity errors : sum local = 0.000162884, global = 5.42779e-18, cumulative = 3.55618e-17
Pressure gradient source: uncorrected Ubar = 1.00016, pressure gradient = 0.631304
smoothSolver:  Solving for omega, Initial residual = 3.51988e-05, Final residual = 2.8216e-06, No Iterations 1
smoothSolver:  Solving for k, Initial residual = 0.0193257, Final residual = 0.00156326, No Iterations 6
ExecutionTime = 0.048492 s  ClockTime = 0 s

Time = 14s

smoothSolver:  Solving for Ux, Initial residual = 0.0184308, Final residual = 0.00125603, No Iterations 5
smoothSolver:  Solving for Uy, Initial residual = 0.125296, Final residual = 0.0111467, No Iterations 5
Pressure gradient source: uncorrected Ubar = 1.00155, pressure gradient = 0.202528
GAMG:  Solving for p, Initial residual = 0.113208, Final residual = 0.010767, No Iterations 9
time step continuity errors : sum local = 0.000118238, global = 4.02346e-18, cumulative = 3.95853e-17
Pressure gradient source: uncorrected Ubar = 1.00016, pressure gradient = 0.586576
smoothSolver:  Solving for omega, Initial residual = 2.0562e-05, Final residual = 2.3307e-06, No Iterations 1
smoothSolver:  Solving for k, Initial residual = 0.015271, Final residual = 0.00120571, No Iterations 6
ExecutionTime = 0.051217 s  ClockTime = 0 s

Time = 15s

smoothSolver:  Solving for Ux, Initial residual = 0.0174446, Final residual = 0.00119482, No Iterations 5
smoothSolver:  Solving for Uy, Initial residual = 0.118683, Final residual = 0.0108482, No Iterations 5
Pressure gradient source: uncorrected Ubar = 1.00139, pressure gradient = 0.186802
GAMG:  Solving for p, Initial residual = 0.108586, Final residual = 0.0103135, No Iterations 7
time step continuity errors : sum local = 9.91634e-05, global = -8.91964e-18, cumulative = 3.06656e-17
Pressure gradient source: uncorrected Ubar = 1.00014, pressure gradient = 0.545907
smoothSolver:  Solving for omega, Initial residual = 1.24983e-05, Final residual = 1.97881e-06, No Iterations 1
smoothSolver:  Solving for k, Initial residual = 0.0122906, Final residual = 0.00100358, No Iterations 6
ExecutionTime = 0.053907 s  ClockTime = 0 s

Time = 16s

smoothSolver:  Solving for Ux, Initial residual = 0.0166291, Final residual = 0.00114784, No Iterations 5
smoothSolver:  Solving for Uy, Initial residual = 0.115335, Final residual = 0.0105928, No Iterations 5
Pressure gradient source: uncorrected Ubar = 1.0013, pressure gradient = 0.159538
GAMG:  Solving for p, Initial residual = 0.119369, Final residual = 0.00884408, No Iterations 3
time step continuity errors : sum local = 7.21888e-05, global = 2.12881e-18, cumulative = 3.27944e-17
Pressure gradient source: uncorrected Ubar = 1.00013, pressure gradient = 0.507329
smoothSolver:  Solving for omega, Initial residual = 7.93954e-06, Final residual = 7.93954e-06, No Iterations 0
smoothSolver:  Solving for k, Initial residual = 0.0100495, Final residual = 0.000826412, No Iterations 6
ExecutionTime = 0.056347 s  ClockTime = 0 s

Time = 17s

smoothSolver:  Solving for Ux, Initial residual = 0.0157489, Final residual = 0.00109462, No Iterations 5
smoothSolver:  Solving for Uy, Initial residual = 0.11804, Final residual = 0.0111085, No Iterations 5
Pressure gradient source: uncorrected Ubar = 1.00144, pressure gradient = 0.0622168
GAMG:  Solving for p, Initial residual = 0.123511, Final residual = 0.00450799, No Iterations 4
time step continuity errors : sum local = 3.50648e-05, global = 5.92658e-20, cumulative = 3.28537e-17
Pressure gradient source: uncorrected Ubar = 1.00015, pressure gradient = 0.461106
smoothSolver:  Solving for omega, Initial residual = 8.05202e-06, Final residual = 8.05202e-06, No Iterations 0
smoothSolver:  Solving for k, Initial residual = 0.00821609, Final residual = 0.000672216, No Iterations 6
ExecutionTime = 0.05884 s  ClockTime = 0 s

Time = 18s

smoothSolver:  Solving for Ux, Initial residual = 0.0149538, Final residual = 0.00104467, No Iterations 5
smoothSolver:  Solving for Uy, Initial residual = 0.123145, Final residual = 0.011605, No Iterations 5
Pressure gradient source: uncorrected Ubar = 1.00111, pressure gradient = 0.108217
GAMG:  Solving for p, Initial residual = 0.122483, Final residual = 0.0110111, No Iterations 3
time step continuity errors : sum local = 7.94929e-05, global = -2.38937e-18, cumulative = 3.04643e-17
Pressure gradient source: uncorrected Ubar = 1.00011, pressure gradient = 0.426258
smoothSolver:  Solving for omega, Initial residual = 8.15264e-06, Final residual = 8.15264e-06, No Iterations 0
smoothSolver:  Solving for k, Initial residual = 0.00656686, Final residual = 0.000515541, No Iterations 6
ExecutionTime = 0.06142 s  ClockTime = 0 s

Time = 19s

smoothSolver:  Solving for Ux, Initial residual = 0.0140901, Final residual = 0.000998946, No Iterations 5
smoothSolver:  Solving for Uy, Initial residual = 0.130996, Final residual = 0.0122417, No Iterations 5
Pressure gradient source: uncorrected Ubar = 1.00111, pressure gradient = 0.0645243
GAMG:  Solving for p, Initial residual = 0.121194, Final residual = 0.0109606, No Iterations 3
time step continuity errors : sum local = 7.67619e-05, global = -2.77626e-18, cumulative = 2.76881e-17
Pressure gradient source: uncorrected Ubar = 1.00011, pressure gradient = 0.389854
smoothSolver:  Solving for omega, Initial residual = 8.23431e-06, Final residual = 8.23431e-06, No Iterations 0
smoothSolver:  Solving for k, Initial residual = 0.00600164, Final residual = 0.000456414, No Iterations 6
ExecutionTime = 0.063887 s  ClockTime = 0 s

Time = 20s

smoothSolver:  Solving for Ux, Initial residual = 0.0133342, Final residual = 0.000955513, No Iterations 5
smoothSolver:  Solving for Uy, Initial residual = 0.137986, Final residual = 0.0125023, No Iterations 5
Pressure gradient source: uncorrected Ubar = 1.00107, pressure gradient = 0.0294064
GAMG:  Solving for p, Initial residual = 0.114441, Final residual = 0.0109128, No Iterations 3
time step continuity errors : sum local = 7.41969e-05, global = 3.56776e-18, cumulative = 3.12558e-17
Pressure gradient source: uncorrected Ubar = 1.00011, pressure gradient = 0.353302
smoothSolver:  Solving for omega, Initial residual = 8.30874e-06, Final residual = 8.30874e-06, No Iterations 0
smoothSolver:  Solving for k, Initial residual = 0.00588322, Final residual = 0.000436028, No Iterations 6
ExecutionTime = 0.066328 s  ClockTime = 0 s

Time = 21s

smoothSolver:  Solving for Ux, Initial residual = 0.0124807, Final residual = 0.000913237, No Iterations 5
smoothSolver:  Solving for Uy, Initial residual = 0.135122, Final residual = 0.0122473, No Iterations 5
Pressure gradient source: uncorrected Ubar = 1.00101, pressure gradient = 0.00644656
GAMG:  Solving for p, Initial residual = 0.109833, Final residual = 0.0103374, No Iterations 3
time step continuity errors : sum local = 6.81547e-05, global = 4.596e-18, cumulative = 3.58518e-17
Pressure gradient source: uncorrected Ubar = 1.0001, pressure gradient = 0.317949
smoothSolver:  Solving for omega, Initial residual = 8.38371e-06, Final residual = 8.38371e-06, No Iterations 0
smoothSolver:  Solving for k, Initial residual = 0.00595239, Final residual = 0.000429888, No Iterations 6
ExecutionTime = 0.068786 s  ClockTime = 0 s

Time = 22s

smoothSolver:  Solving for Ux, Initial residual = 0.0118075, Final residual = 0.000876756, No Iterations 5
smoothSolver:  Solving for Uy, Initial residual = 0.123255, Final residual = 0.0114508, No Iterations 5
Pressure gradient source: uncorrected Ubar = 1.00093, pressure gradient = -0.00911625
GAMG:  Solving for p, Initial residual = 0.102814, Final residual = 0.00696394, No Iterations 3
time step continuity errors : sum local = 4.51969e-05, global = 4.41638e-18, cumulative = 4.02682e-17
Pressure gradient source: uncorrected Ubar = 1.00009, pressure gradient = 0.284863
smoothSolver:  Solving for omega, Initial residual = 8.44535e-06, Final residual = 8.44535e-06, No Iterations 0
smoothSolver:  Solving for k, Initial residual = 0.00600343, Final residual = 0.000431666, No Iterations 6
ExecutionTime = 0.071406 s  ClockTime = 0 s

Time = 23s

smoothSolver:  Solving for Ux, Initial residual = 0.011005, Final residual = 0.000840313, No Iterations 5
smoothSolver:  Solving for Uy, Initial residual = 0.108161, Final residual = 0.0101888, No Iterations 5
Pressure gradient source: uncorrected Ubar = 1.00093, pressure gradient = -0.0453686
GAMG:  Solving for p, Initial residual = 0.084811, Final residual = 0.00705958, No Iterations 3
time step continuity errors : sum local = 4.28327e-05, global = -4.14241e-18, cumulative = 3.61258e-17
Pressure gradient source: uncorrected Ubar = 1.0001, pressure gradient = 0.250747
smoothSolver:  Solving for omega, Initial residual = 8.5265e-06, Final residual = 8.5265e-06, No Iterations 0
smoothSolver:  Solving for k, Initial residual = 0.00631737, Final residual = 0.000453247, No Iterations 6
ExecutionTime = 0.073879 s  ClockTime = 0 s

Time = 24s

smoothSolver:  Solving for Ux, Initial residual = 0.0104633, Final residual = 0.000813076, No Iterations 5
smoothSolver:  Solving for Uy, Initial residual = 0.0955503, Final residual = 0.00942365, No Iterations 5
Pressure gradient source: uncorrected Ubar = 1.00081, pressure gradient = -0.0427606
GAMG:  Solving for p, Initial residual = 0.0780005, Final residual = 0.00681611, No Iterations 3
time step continuity errors : sum local = 3.84943e-05, global = -1.61759e-18, cumulative = 3.45082e-17
Pressure gradient source: uncorrected Ubar = 1.00008, pressure gradient = 0.221127
smoothSolver:  Solving for omega, Initial residual = 8.58857e-06, Final residual = 8.58857e-06, No Iterations 0
smoothSolver:  Solving for k, Initial residual = 0.00628352, Final residual = 0.00046457, No Iterations 6
ExecutionTime = 0.076334 s  ClockTime = 0 s

Time = 25s

smoothSolver:  Solving for Ux, Initial residual = 0.00992363, Final residual = 0.000788605, No Iterations 5
smoothSolver:  Solving for Uy, Initial residual = 0.0862655, Final residual = 0.00858064, No Iterations 5
Pressure gradient source: uncorrected Ubar = 1.00078, pressure gradient = -0.064209
GAMG:  Solving for p, Initial residual = 0.0789551, Final residual = 0.00708027, No Iterations 3
time step continuity errors : sum local = 3.989e-05, global = 4.24575e-19, cumulative = 3.49328e-17
Pressure gradient source: uncorrected Ubar = 1.00008, pressure gradient = 0.192248
smoothSolver:  Solving for omega, Initial residual = 8.64183e-06, Final residual = 8.64183e-06, No Iterations 0
smoothSolver:  Solving for k, Initial residual = 0.00643532, Final residual = 0.00047712, No Iterations 6
ExecutionTime = 0.078848 s  ClockTime = 0 s

Time = 26s

smoothSolver:  Solving for Ux, Initial residual = 0.00933348, Final residual = 0.000761349, No Iterations 5
smoothSolver:  Solving for Uy, Initial residual = 0.0753551, Final residual = 0.00502513, No Iterations 6
Pressure gradient source: uncorrected Ubar = 1.00078, pressure gradient = -0.0960161
GAMG:  Solving for p, Initial residual = 0.0718448, Final residual = 0.00619598, No Iterations 3
time step continuity errors : sum local = 3.50873e-05, global = -3.21534e-18, cumulative = 3.17174e-17
Pressure gradient source: uncorrected Ubar = 1.00008, pressure gradient = 0.16246
smoothSolver:  Solving for omega, Initial residual = 8.68078e-06, Final residual = 8.68078e-06, No Iterations 0
smoothSolver:  Solving for k, Initial residual = 0.00660463, Final residual = 0.000505007, No Iterations 6
ExecutionTime = 0.081367 s  ClockTime = 0 s

Time = 27s

smoothSolver:  Solving for Ux, Initial residual = 0.00902472, Final residual = 0.000748634, No Iterations 5
smoothSolver:  Solving for Uy, Initial residual = 0.0660014, Final residual = 0.00446628, No Iterations 6
Pressure gradient source: uncorrected Ubar = 1.00065, pressure gradient = -0.0798728
GAMG:  Solving for p, Initial residual = 0.0657928, Final residual = 0.00622107, No Iterations 6
time step continuity errors : sum local = 3.36204e-05, global = -2.7914e-18, cumulative = 2.8926e-17
Pressure gradient source: uncorrected Ubar = 1.00006, pressure gradient = 0.138573
smoothSolver:  Solving for omega, Initial residual = 8.69967e-06, Final residual = 8.69967e-06, No Iterations 0
smoothSolver:  Solving for k, Initial residual = 0.0066818, Final residual = 0.000514735, No Iterations 6
ExecutionTime = 0.083994 s  ClockTime = 0 s

Time = 28s

smoothSolver:  Solving for Ux, Initial residual = 0.00853814, Final residual = 0.000729157, No Iterations 5
smoothSolver:  Solving for Uy, Initial residual = 0.0566595, Final residual = 0.00382017, No Iterations 6
Pressure gradient source: uncorrected Ubar = 1.00068, pressure gradient = -0.117518
GAMG:  Solving for p, Initial residual = 0.0667163, Final residual = 0.00597126, No Iterations 7
time step continuity errors : sum local = 3.01407e-05, global = 1.36204e-18, cumulative = 3.02881e-17
Pressure gradient source: uncorrected Ubar = 1.00007, pressure gradient = 0.112549
smoothSolver:  Solving for omega, Initial residual = 8.73287e-06, Final residual = 8.73287e-06, No Iterations 0
smoothSolver:  Solving for k, Initial residual = 0.00681994, Final residual = 0.000527799, No Iterations 6
ExecutionTime = 0.086774 s  ClockTime = 0 s

Time = 29s

smoothSolver:  Solving for Ux, Initial residual = 0.00808961, Final residual = 0.00070687, No Iterations 5
smoothSolver:  Solving for Uy, Initial residual = 0.0475341, Final residual = 0.00327004, No Iterations 6
Pressure gradient source: uncorrected Ubar = 1.00068, pressure gradient = -0.145666
GAMG:  Solving for p, Initial residual = 0.0593043, Final residual = 0.00572, No Iterations 5
time step continuity errors : sum local = 2.7575e-05, global = 1.65185e-19, cumulative = 3.04532e-17
Pressure gradient source: uncorrected Ubar = 1.00007, pressure gradient = 0.0857481
smoothSolver:  Solving for omega, Initial residual = 8.75554e-06, Final residual = 8.75554e-06, No Iterations 0
smoothSolver:  Solving for k, Initial residual = 0.00698004, Final residual = 0.000536046, No Iterations 6
ExecutionTime = 0.089389 s  ClockTime = 0 s

Time = 30s

smoothSolver:  Solving for Ux, Initial residual = 0.0079172, Final residual = 0.000705649, No Iterations 5
smoothSolver:  Solving for Uy, Initial residual = 0.042908, Final residual = 0.00293348, No Iterations 6
Pressure gradient source: uncorrected Ubar = 1.00051, pressure gradient = -0.109954
GAMG:  Solving for p, Initial residual = 0.0595459, Final residual = 0.00443593, No Iterations 3
time step continuity errors : sum local = 2.13893e-05, global = 1.23412e-18, cumulative = 3.16874e-17
Pressure gradient source: uncorrected Ubar = 1.00005, pressure gradient = 0.0671317
smoothSolver:  Solving for omega, Initial residual = 8.76594e-06, Final residual = 8.76594e-06, No Iterations 0
smoothSolver:  Solving for k, Initial residual = 0.00697593, Final residual = 0.000543658, No Iterations 6
ExecutionTime = 0.091885 s  ClockTime = 0 s

Time = 31s

smoothSolver:  Solving for Ux, Initial residual = 0.00762522, Final residual = 0.000695678, No Iterations 5
smoothSolver:  Solving for Uy, Initial residual = 0.0378719, Final residual = 0.00255192, No Iterations 6
Pressure gradient source: uncorrected Ubar = 1.00054, pressure gradient = -0.141153
GAMG:  Solving for p, Initial residual = 0.0507565, Final residual = 0.00445173, No Iterations 4
time step continuity errors : sum local = 2.02752e-05, global = 2.3799e-19, cumulative = 3.19254e-17
Pressure gradient source: uncorrected Ubar = 1.00005, pressure gradient = 0.0466624
smoothSolver:  Solving for omega, Initial residual = 8.79072e-06, Final residual = 8.79072e-06, No Iterations 0
smoothSolver:  Solving for k, Initial residual = 0.00706075, Final residual = 0.000554561, No Iterations 6
ExecutionTime = 0.094387 s  ClockTime = 0 s

Time = 32s

smoothSolver:  Solving for Ux, Initial residual = 0.0071405, Final residual = 0.000670474, No Iterations 5
smoothSolver:  Solving for Uy, Initial residual = 0.0328066, Final residual = 0.00227221, No Iterations 6
Pressure gradient source: uncorrected Ubar = 1.00062, pressure gradient = -0.193334
GAMG:  Solving for p, Initial residual = 0.0478013, Final residual = 0.00464553, No Iterations 3
time step continuity errors : sum local = 2.04274e-05, global = 7.44844e-18, cumulative = 3.93738e-17
Pressure gradient source: uncorrected Ubar = 1.00007, pressure gradient = 0.0214221
smoothSolver:  Solving for omega, Initial residual = 8.80341e-06, Final residual = 8.80341e-06, No Iterations 0
smoothSolver:  Solving for k, Initial residual = 0.00731514, Final residual = 0.000557546, No Iterations 6
ExecutionTime = 0.096875 s  ClockTime = 0 s

Time = 33s

smoothSolver:  Solving for Ux, Initial residual = 0.00711188, Final residual = 0.000675373, No Iterations 5
smoothSolver:  Solving for Uy, Initial residual = 0.0295093, Final residual = 0.00215064, No Iterations 6
Pressure gradient source: uncorrected Ubar = 1.00042, pressure gradient = -0.142234
GAMG:  Solving for p, Initial residual = 0.0458051, Final residual = 0.00365811, No Iterations 4
time step continuity errors : sum local = 1.61284e-05, global = -3.73626e-18, cumulative = 3.56375e-17
Pressure gradient source: uncorrected Ubar = 1.00004, pressure gradient = 0.0062217
smoothSolver:  Solving for omega, Initial residual = 8.80881e-06, Final residual = 8.80881e-06, No Iterations 0
smoothSolver:  Solving for k, Initial residual = 0.00716605, Final residual = 0.000563806, No Iterations 6
ExecutionTime = 0.099378 s  ClockTime = 0 s

Time = 34s

smoothSolver:  Solving for Ux, Initial residual = 0.00695794, Final residual = 0.000676602, No Iterations 5
smoothSolver:  Solving for Uy, Initial residual = 0.0278185, Final residual = 0.00210615, No Iterations 6
Pressure gradient source: uncorrected Ubar = 1.00041, pressure gradient = -0.153994
GAMG:  Solving for p, Initial residual = 0.0473828, Final residual = 0.00423739, No Iterations 5
time step continuity errors : sum local = 1.83845e-05, global = 2.56184e-18, cumulative = 3.81994e-17
Pressure gradient source: uncorrected Ubar = 1.00004, pressure gradient = -0.00857703
smoothSolver:  Solving for omega, Initial residual = 8.82328e-06, Final residual = 8.82328e-06, No Iterations 0
smoothSolver:  Solving for k, Initial residual = 0.00721567, Final residual = 0.000567051, No Iterations 6
ExecutionTime = 0.101941 s  ClockTime = 0 s

Time = 35s

smoothSolver:  Solving for Ux, Initial residual = 0.00671247, Final residual = 0.000665849, No Iterations 5
smoothSolver:  Solving for Uy, Initial residual = 0.0254853, Final residual = 0.00193216, No Iterations 6
Pressure gradient source: uncorrected Ubar = 1.00046, pressure gradient = -0.187208
GAMG:  Solving for p, Initial residual = 0.0438741, Final residual = 0.00419659, No Iterations 8
time step continuity errors : sum local = 1.85206e-05, global = 4.10411e-18, cumulative = 4.23035e-17
Pressure gradient source: uncorrected Ubar = 1.00005, pressure gradient = -0.0261246
smoothSolver:  Solving for omega, Initial residual = 8.83921e-06, Final residual = 8.83921e-06, No Iterations 0
smoothSolver:  Solving for k, Initial residual = 0.00727504, Final residual = 0.00056981, No Iterations 6
ExecutionTime = 0.104644 s  ClockTime = 0 s

Time = 36s

smoothSolver:  Solving for Ux, Initial residual = 0.00630531, Final residual = 0.000430757, No Iterations 6
smoothSolver:  Solving for Uy, Initial residual = 0.0226052, Final residual = 0.00177524, No Iterations 6
Pressure gradient source: uncorrected Ubar = 1.00048, pressure gradient = -0.210348
GAMG:  Solving for p, Initial residual = 0.0446257, Final residual = 0.00410841, No Iterations 7
time step continuity errors : sum local = 1.80652e-05, global = -1.09582e-18, cumulative = 4.12077e-17
Pressure gradient source: uncorrected Ubar = 1.00005, pressure gradient = -0.045339
smoothSolver:  Solving for omega, Initial residual = 8.84688e-06, Final residual = 8.84688e-06, No Iterations 0
smoothSolver:  Solving for k, Initial residual = 0.00740681, Final residual = 0.000570771, No Iterations 6
ExecutionTime = 0.107311 s  ClockTime = 0 s

Time = 37s

smoothSolver:  Solving for Ux, Initial residual = 0.00634708, Final residual = 0.000437773, No Iterations 6
smoothSolver:  Solving for Uy, Initial residual = 0.0219081, Final residual = 0.0018535, No Iterations 6
Pressure gradient source: uncorrected Ubar = 1.00029, pressure gradient = -0.157222
GAMG:  Solving for p, Initial residual = 0.0410225, Final residual = 0.00400608, No Iterations 6
time step continuity errors : sum local = 1.71621e-05, global = -5.75547e-18, cumulative = 3.54522e-17
Pressure gradient source: uncorrected Ubar = 1.00003, pressure gradient = -0.0553016
smoothSolver:  Solving for omega, Initial residual = 8.84338e-06, Final residual = 8.84338e-06, No Iterations 0
smoothSolver:  Solving for k, Initial residual = 0.00728705, Final residual = 0.000572953, No Iterations 6
ExecutionTime = 0.109919 s  ClockTime = 0 s

Time = 38s

smoothSolver:  Solving for Ux, Initial residual = 0.00627333, Final residual = 0.000440269, No Iterations 6
smoothSolver:  Solving for Uy, Initial residual = 0.0225456, Final residual = 0.00188564, No Iterations 6
Pressure gradient source: uncorrected Ubar = 1.0003, pressure gradient = -0.169752
GAMG:  Solving for p, Initial residual = 0.0435621, Final residual = 0.00388913, No Iterations 7
time step continuity errors : sum local = 1.60088e-05, global = -1.71631e-18, cumulative = 3.37359e-17
Pressure gradient source: uncorrected Ubar = 1.00003, pressure gradient = -0.0656458
smoothSolver:  Solving for omega, Initial residual = 8.84594e-06, Final residual = 8.84594e-06, No Iterations 0
smoothSolver:  Solving for k, Initial residual = 0.00731063, Final residual = 0.000571492, No Iterations 6
ExecutionTime = 0.112578 s  ClockTime = 0 s

Time = 39s

smoothSolver:  Solving for Ux, Initial residual = 0.0061152, Final residual = 0.00043649, No Iterations 6
smoothSolver:  Solving for Uy, Initial residual = 0.021428, Final residual = 0.00178397, No Iterations 6
Pressure gradient source: uncorrected Ubar = 1.00033, pressure gradient = -0.193776
GAMG:  Solving for p, Initial residual = 0.0422587, Final residual = 0.00394707, No Iterations 9
time step continuity errors : sum local = 1.59451e-05, global = 4.79199e-19, cumulative = 3.42151e-17
Pressure gradient source: uncorrected Ubar = 1.00003, pressure gradient = -0.0779482
smoothSolver:  Solving for omega, Initial residual = 8.85038e-06, Final residual = 8.85038e-06, No Iterations 0
smoothSolver:  Solving for k, Initial residual = 0.00731762, Final residual = 0.000570594, No Iterations 6
ExecutionTime = 0.11532 s  ClockTime = 0 s

Time = 40s

smoothSolver:  Solving for Ux, Initial residual = 0.00574979, Final residual = 0.000423737, No Iterations 6
smoothSolver:  Solving for Uy, Initial residual = 0.0194814, Final residual = 0.00164054, No Iterations 6
Pressure gradient source: uncorrected Ubar = 1.0004, pressure gradient = -0.231988
GAMG:  Solving for p, Initial residual = 0.042402, Final residual = 0.00402314, No Iterations 10
time step continuity errors : sum local = 1.60371e-05, global = 5.57941e-18, cumulative = 3.97945e-17
Pressure gradient source: uncorrected Ubar = 1.00004, pressure gradient = -0.0939814
smoothSolver:  Solving for omega, Initial residual = 8.84918e-06, Final residual = 8.84918e-06, No Iterations 0
smoothSolver:  Solving for k, Initial residual = 0.00737839, Final residual = 0.000568015, No Iterations 6
ExecutionTime = 0.118081 s  ClockTime = 0 s

Time = 41s

smoothSolver:  Solving for Ux, Initial residual = 0.00567946, Final residual = 0.000425751, No Iterations 6
smoothSolver:  Solving for Uy, Initial residual = 0.0191534, Final residual = 0.00163296, No Iterations 6
Pressure gradient source: uncorrected Ubar = 1.00027, pressure gradient = -0.19655
GAMG:  Solving for p, Initial residual = 0.046415, Final residual = 0.00372702, No Iterations 7
time step continuity errors : sum local = 1.41093e-05, global = 1.60468e-18, cumulative = 4.13992e-17
Pressure gradient source: uncorrected Ubar = 1.00002, pressure gradient = -0.103464
smoothSolver:  Solving for omega, Initial residual = 8.8435e-06, Final residual = 8.8435e-06, No Iterations 0
smoothSolver:  Solving for k, Initial residual = 0.00720911, Final residual = 0.000568829, No Iterations 6
ExecutionTime = 0.120745 s  ClockTime = 0 s

Time = 42s

smoothSolver:  Solving for Ux, Initial residual = 0.00571871, Final residual = 0.000431723, No Iterations 6
smoothSolver:  Solving for Uy, Initial residual = 0.0200931, Final residual = 0.00168152, No Iterations 6
Pressure gradient source: uncorrected Ubar = 1.00022, pressure gradient = -0.184915
GAMG:  Solving for p, Initial residual = 0.0380663, Final residual = 0.00374631, No Iterations 4
time step continuity errors : sum local = 1.33868e-05, global = -3.88365e-18, cumulative = 3.75155e-17
Pressure gradient source: uncorrected Ubar = 1.00002, pressure gradient = -0.110231
smoothSolver:  Solving for omega, Initial residual = 8.83825e-06, Final residual = 8.83825e-06, No Iterations 0
smoothSolver:  Solving for k, Initial residual = 0.00714938, Final residual = 0.000561614, No Iterations 6
ExecutionTime = 0.12324 s  ClockTime = 0 s

Time = 43s

smoothSolver:  Solving for Ux, Initial residual = 0.00564092, Final residual = 0.000432221, No Iterations 6
smoothSolver:  Solving for Uy, Initial residual = 0.0202926, Final residual = 0.00167305, No Iterations 6
Pressure gradient source: uncorrected Ubar = 1.00022, pressure gradient = -0.193617
GAMG:  Solving for p, Initial residual = 0.040225, Final residual = 0.00345887, No Iterations 5
time step continuity errors : sum local = 1.17433e-05, global = 1.18201e-17, cumulative = 4.93356e-17
Pressure gradient source: uncorrected Ubar = 1.00002, pressure gradient = -0.117355
smoothSolver:  Solving for omega, Initial residual = 8.84237e-06, Final residual = 8.84237e-06, No Iterations 0
smoothSolver:  Solving for k, Initial residual = 0.0070724, Final residual = 0.000552103, No Iterations 6
ExecutionTime = 0.125805 s  ClockTime = 0 s

Time = 44s

smoothSolver:  Solving for Ux, Initial residual = 0.00547762, Final residual = 0.000426169, No Iterations 6
smoothSolver:  Solving for Uy, Initial residual = 0.019346, Final residual = 0.00158884, No Iterations 6
Pressure gradient source: uncorrected Ubar = 1.00025, pressure gradient = -0.21111
GAMG:  Solving for p, Initial residual = 0.0408997, Final residual = 0.00378091, No Iterations 10
time step continuity errors : sum local = 1.29856e-05, global = 9.32816e-18, cumulative = 5.86638e-17
Pressure gradient source: uncorrected Ubar = 1.00002, pressure gradient = -0.126046
smoothSolver:  Solving for omega, Initial residual = 8.84665e-06, Final residual = 8.84665e-06, No Iterations 0
smoothSolver:  Solving for k, Initial residual = 0.00698974, Final residual = 0.000545429, No Iterations 6
ExecutionTime = 0.128576 s  ClockTime = 0 s

Time = 45s

smoothSolver:  Solving for Ux, Initial residual = 0.00514769, Final residual = 0.000412469, No Iterations 6
smoothSolver:  Solving for Uy, Initial residual = 0.0177576, Final residual = 0.00147601, No Iterations 6
Pressure gradient source: uncorrected Ubar = 1.0003, pressure gradient = -0.236767
GAMG:  Solving for p, Initial residual = 0.042622, Final residual = 0.00401404, No Iterations 13
time step continuity errors : sum local = 1.37618e-05, global = 2.0206e-18, cumulative = 6.06844e-17
Pressure gradient source: uncorrected Ubar = 1.00003, pressure gradient = -0.137284
smoothSolver:  Solving for omega, Initial residual = 8.85005e-06, Final residual = 8.85005e-06, No Iterations 0
smoothSolver:  Solving for k, Initial residual = 0.00695498, Final residual = 0.000537432, No Iterations 6
ExecutionTime = 0.131514 s  ClockTime = 0 s

Time = 46s

smoothSolver:  Solving for Ux, Initial residual = 0.00503539, Final residual = 0.000410577, No Iterations 6
smoothSolver:  Solving for Uy, Initial residual = 0.0175538, Final residual = 0.00144872, No Iterations 6
Pressure gradient source: uncorrected Ubar = 1.00021, pressure gradient = -0.212365
GAMG:  Solving for p, Initial residual = 0.0505109, Final residual = 0.00502481, No Iterations 7
time step continuity errors : sum local = 1.61658e-05, global = -7.89199e-18, cumulative = 5.27924e-17
Pressure gradient source: uncorrected Ubar = 1.00002, pressure gradient = -0.143979
smoothSolver:  Solving for omega, Initial residual = 8.85194e-06, Final residual = 8.85194e-06, No Iterations 0
smoothSolver:  Solving for k, Initial residual = 0.0067721, Final residual = 0.000532869, No Iterations 6
ExecutionTime = 0.134149 s  ClockTime = 0 s

Time = 47s

smoothSolver:  Solving for Ux, Initial residual = 0.00506315, Final residual = 0.000415384, No Iterations 6
smoothSolver:  Solving for Uy, Initial residual = 0.0189843, Final residual = 0.00161147, No Iterations 6
Pressure gradient source: uncorrected Ubar = 1.00014, pressure gradient = -0.195054
GAMG:  Solving for p, Initial residual = 0.0414615, Final residual = 0.00391345, No Iterations 6
time step continuity errors : sum local = 1.18118e-05, global = -9.69442e-19, cumulative = 5.18229e-17
Pressure gradient source: uncorrected Ubar = 1.00001, pressure gradient = -0.147543
smoothSolver:  Solving for omega, Initial residual = 8.84591e-06, Final residual = 8.84591e-06, No Iterations 0
smoothSolver:  Solving for k, Initial residual = 0.00666788, Final residual = 0.000524971, No Iterations 6
ExecutionTime = 0.136743 s  ClockTime = 0 s

Time = 48s

smoothSolver:  Solving for Ux, Initial residual = 0.00504908, Final residual = 0.000416421, No Iterations 6
smoothSolver:  Solving for Uy, Initial residual = 0.021181, Final residual = 0.00168338, No Iterations 6
Pressure gradient source: uncorrected Ubar = 1.00014, pressure gradient = -0.197342
GAMG:  Solving for p, Initial residual = 0.0437892, Final residual = 0.00408039, No Iterations 5
time step continuity errors : sum local = 1.13814e-05, global = 3.52879e-18, cumulative = 5.53517e-17
Pressure gradient source: uncorrected Ubar = 1.00001, pressure gradient = -0.151009
smoothSolver:  Solving for omega, Initial residual = 8.83235e-06, Final residual = 8.83235e-06, No Iterations 0
smoothSolver:  Solving for k, Initial residual = 0.00655118, Final residual = 0.00051663, No Iterations 6
ExecutionTime = 0.139326 s  ClockTime = 0 s

Time = 49s

smoothSolver:  Solving for Ux, Initial residual = 0.00496398, Final residual = 0.000413071, No Iterations 6
smoothSolver:  Solving for Uy, Initial residual = 0.021764, Final residual = 0.0016554, No Iterations 6
Pressure gradient source: uncorrected Ubar = 1.00015, pressure gradient = -0.203049
GAMG:  Solving for p, Initial residual = 0.0459226, Final residual = 0.0045732, No Iterations 8
time step continuity errors : sum local = 1.28171e-05, global = 1.58067e-18, cumulative = 5.69324e-17
Pressure gradient source: uncorrected Ubar = 1.00001, pressure gradient = -0.154905
smoothSolver:  Solving for omega, Initial residual = 8.73174e-06, Final residual = 8.73174e-06, No Iterations 0
smoothSolver:  Solving for k, Initial residual = 0.00642086, Final residual = 0.000505224, No Iterations 6
ExecutionTime = 0.14203 s  ClockTime = 0 s

Time = 50s

smoothSolver:  Solving for Ux, Initial residual = 0.00479602, Final residual = 0.000404139, No Iterations 6
smoothSolver:  Solving for Uy, Initial residual = 0.0208422, Final residual = 0.00163719, No Iterations 6
Pressure gradient source: uncorrected Ubar = 1.00016, pressure gradient = -0.211672
GAMG:  Solving for p, Initial residual = 0.0475684, Final residual = 0.00440374, No Iterations 9
time step continuity errors : sum local = 1.25456e-05, global = -7.49015e-19, cumulative = 5.61834e-17
Pressure gradient source: uncorrected Ubar = 1.00001, pressure gradient = -0.15962
smoothSolver:  Solving for omega, Initial residual = 8.70046e-06, Final residual = 8.70046e-06, No Iterations 0
smoothSolver:  Solving for k, Initial residual = 0.00628285, Final residual = 0.000492179, No Iterations 6
ExecutionTime = 0.144768 s  ClockTime = 0 s

Time = 51s

smoothSolver:  Solving for Ux, Initial residual = 0.0045133, Final residual = 0.000389919, No Iterations 6
smoothSolver:  Solving for Uy, Initial residual = 0.0181231, Final residual = 0.00156727, No Iterations 6
Pressure gradient source: uncorrected Ubar = 1.00019, pressure gradient = -0.225669
GAMG:  Solving for p, Initial residual = 0.0490113, Final residual = 0.00484183, No Iterations 10
time step continuity errors : sum local = 1.30199e-05, global = -6.7445e-19, cumulative = 5.55089e-17
Pressure gradient source: uncorrected Ubar = 1.00002, pressure gradient = -0.165821
smoothSolver:  Solving for omega, Initial residual = 8.68468e-06, Final residual = 8.68468e-06, No Iterations 0
smoothSolver:  Solving for k, Initial residual = 0.00613749, Final residual = 0.00048148, No Iterations 6
ExecutionTime = 0.14756 s  ClockTime = 0 s

Time = 52s

smoothSolver:  Solving for Ux, Initial residual = 0.00437871, Final residual = 0.000383814, No Iterations 6
smoothSolver:  Solving for Uy, Initial residual = 0.0172272, Final residual = 0.00157408, No Iterations 6
Pressure gradient source: uncorrected Ubar = 1.00013, pressure gradient = -0.209675
GAMG:  Solving for p, Initial residual = 0.0570813, Final residual = 0.00550878, No Iterations 9
time step continuity errors : sum local = 1.3024e-05, global = 3.99224e-19, cumulative = 5.59082e-17
Pressure gradient source: uncorrected Ubar = 1.00001, pressure gradient = -0.169185
smoothSolver:  Solving for omega, Initial residual = 8.60948e-06, Final residual = 8.60948e-06, No Iterations 0
smoothSolver:  Solving for k, Initial residual = 0.00602632, Final residual = 0.000475053, No Iterations 6
ExecutionTime = 0.150303 s  ClockTime = 0 s

Time = 53s

smoothSolver:  Solving for Ux, Initial residual = 0.00434917, Final residual = 0.000383192, No Iterations 6
smoothSolver:  Solving for Uy, Initial residual = 0.0211516, Final residual = 0.00193718, No Iterations 6
Pressure gradient source: uncorrected Ubar = 1.00008, pressure gradient = -0.197646
GAMG:  Solving for p, Initial residual = 0.0476131, Final residual = 0.00467497, No Iterations 6
time step continuity errors : sum local = 1.01092e-05, global = 4.14257e-18, cumulative = 6.00507e-17
Pressure gradient source: uncorrected Ubar = 1, pressure gradient = -0.170539
smoothSolver:  Solving for omega, Initial residual = 8.51497e-06, Final residual = 8.51497e-06, No Iterations 0
smoothSolver:  Solving for k, Initial residual = 0.00583961, Final residual = 0.000464568, No Iterations 6
ExecutionTime = 0.152899 s  ClockTime = 0 s

Time = 54s

smoothSolver:  Solving for Ux, Initial residual = 0.0043287, Final residual = 0.000382188, No Iterations 6
smoothSolver:  Solving for Uy, Initial residual = 0.0235905, Final residual = 0.00210941, No Iterations 6
Pressure gradient source: uncorrected Ubar = 1.00007, pressure gradient = -0.193375
GAMG:  Solving for p, Initial residual = 0.0473612, Final residual = 0.00427498, No Iterations 3
time step continuity errors : sum local = 8.89525e-06, global = -7.22155e-19, cumulative = 5.93286e-17
Pressure gradient source: uncorrected Ubar = 1, pressure gradient = -0.171183
smoothSolver:  Solving for omega, Initial residual = 8.5066e-06, Final residual = 8.5066e-06, No Iterations 0
smoothSolver:  Solving for k, Initial residual = 0.00569959, Final residual = 0.000451325, No Iterations 6
ExecutionTime = 0.155372 s  ClockTime = 0 s

Time = 55s

smoothSolver:  Solving for Ux, Initial residual = 0.00428924, Final residual = 0.000379278, No Iterations 6
smoothSolver:  Solving for Uy, Initial residual = 0.0248916, Final residual = 0.00220287, No Iterations 6
Pressure gradient source: uncorrected Ubar = 1.00006, pressure gradient = -0.191704
GAMG:  Solving for p, Initial residual = 0.0460352, Final residual = 0.0034172, No Iterations 3
time step continuity errors : sum local = 7.1249e-06, global = 1.08461e-17, cumulative = 7.01747e-17
Pressure gradient source: uncorrected Ubar = 1, pressure gradient = -0.171586
smoothSolver:  Solving for omega, Initial residual = 8.48921e-06, Final residual = 8.48921e-06, No Iterations 0
smoothSolver:  Solving for k, Initial residual = 0.00555263, Final residual = 0.000441313, No Iterations 6
ExecutionTime = 0.157843 s  ClockTime = 0 s

Time = 56s

smoothSolver:  Solving for Ux, Initial residual = 0.00421711, Final residual = 0.000373816, No Iterations 6
smoothSolver:  Solving for Uy, Initial residual = 0.0256842, Final residual = 0.00228043, No Iterations 6
Pressure gradient source: uncorrected Ubar = 1.00006, pressure gradient = -0.192559
GAMG:  Solving for p, Initial residual = 0.0450514, Final residual = 0.00419831, No Iterations 6
time step continuity errors : sum local = 8.84374e-06, global = -7.08363e-18, cumulative = 6.3091e-17
Pressure gradient source: uncorrected Ubar = 1, pressure gradient = -0.172144
smoothSolver:  Solving for omega, Initial residual = 8.44981e-06, Final residual = 8.44981e-06, No Iterations 0
smoothSolver:  Solving for k, Initial residual = 0.00540912, Final residual = 0.000425342, No Iterations 6
ExecutionTime = 0.160457 s  ClockTime = 0 s

Time = 57s

smoothSolver:  Solving for Ux, Initial residual = 0.00409619, Final residual = 0.000365534, No Iterations 6
smoothSolver:  Solving for Uy, Initial residual = 0.0256528, Final residual = 0.00229089, No Iterations 6
Pressure gradient source: uncorrected Ubar = 1.00007, pressure gradient = -0.195946
GAMG:  Solving for p, Initial residual = 0.0474169, Final residual = 0.00457239, No Iterations 10
time step continuity errors : sum local = 9.79501e-06, global = -3.48817e-18, cumulative = 5.96029e-17
Pressure gradient source: uncorrected Ubar = 1, pressure gradient = -0.173206
smoothSolver:  Solving for omega, Initial residual = 8.44053e-06, Final residual = 8.44053e-06, No Iterations 0
smoothSolver:  Solving for k, Initial residual = 0.00525254, Final residual = 0.00041528, No Iterations 6
ExecutionTime = 0.163231 s  ClockTime = 0 s

Time = 58s

smoothSolver:  Solving for Ux, Initial residual = 0.00391106, Final residual = 0.000354263, No Iterations 6
smoothSolver:  Solving for Uy, Initial residual = 0.0246048, Final residual = 0.0022386, No Iterations 6
Pressure gradient source: uncorrected Ubar = 1.00009, pressure gradient = -0.201974
GAMG:  Solving for p, Initial residual = 0.0509127, Final residual = 0.00490511, No Iterations 14
time step continuity errors : sum local = 1.0084e-05, global = -6.41839e-19, cumulative = 5.8961e-17
Pressure gradient source: uncorrected Ubar = 1.00001, pressure gradient = -0.175093
smoothSolver:  Solving for omega, Initial residual = 8.43164e-06, Final residual = 8.43164e-06, No Iterations 0
smoothSolver:  Solving for k, Initial residual = 0.00507839, Final residual = 0.000396695, No Iterations 6
ExecutionTime = 0.166189 s  ClockTime = 0 s

Time = 59s

smoothSolver:  Solving for Ux, Initial residual = 0.00373258, Final residual = 0.000343938, No Iterations 6
smoothSolver:  Solving for Uy, Initial residual = 0.0220603, Final residual = 0.00200295, No Iterations 6
Pressure gradient source: uncorrected Ubar = 1.00008, pressure gradient = -0.200322
GAMG:  Solving for p, Initial residual = 0.0619127, Final residual = 0.00582529, No Iterations 6
time step continuity errors : sum local = 1.0444e-05, global = -3.34578e-19, cumulative = 5.86264e-17
Pressure gradient source: uncorrected Ubar = 1, pressure gradient = -0.176633
smoothSolver:  Solving for omega, Initial residual = 8.42131e-06, Final residual = 8.42131e-06, No Iterations 0
smoothSolver:  Solving for k, Initial residual = 0.00491218, Final residual = 0.000387726, No Iterations 6
ExecutionTime = 0.168808 s  ClockTime = 0 s

Time = 60s

smoothSolver:  Solving for Ux, Initial residual = 0.00367219, Final residual = 0.000339771, No Iterations 6
smoothSolver:  Solving for Uy, Initial residual = 0.0255591, Final residual = 0.00238238, No Iterations 6
Pressure gradient source: uncorrected Ubar = 1.00003, pressure gradient = -0.187441
GAMG:  Solving for p, Initial residual = 0.0517611, Final residual = 0.00475599, No Iterations 6
time step continuity errors : sum local = 8.01018e-06, global = -1.13857e-17, cumulative = 4.72408e-17
Pressure gradient source: uncorrected Ubar = 0.999999, pressure gradient = -0.176273
smoothSolver:  Solving for omega, Initial residual = 8.40566e-06, Final residual = 8.40566e-06, No Iterations 0
smoothSolver:  Solving for k, Initial residual = 0.00475574, Final residual = 0.000375743, No Iterations 6
ExecutionTime = 0.171437 s  ClockTime = 0 s

Time = 61s

smoothSolver:  Solving for Ux, Initial residual = 0.00359596, Final residual = 0.000334313, No Iterations 6
smoothSolver:  Solving for Uy, Initial residual = 0.0280979, Final residual = 0.0026074, No Iterations 6
Pressure gradient source: uncorrected Ubar = 1.00004, pressure gradient = -0.187328
GAMG:  Solving for p, Initial residual = 0.0522592, Final residual = 0.00374786, No Iterations 3
time step continuity errors : sum local = 6.8499e-06, global = -3.81673e-18, cumulative = 4.3424e-17
Pressure gradient source: uncorrected Ubar = 0.999999, pressure gradient = -0.176003
smoothSolver:  Solving for omega, Initial residual = 8.38632e-06, Final residual = 8.38632e-06, No Iterations 0
smoothSolver:  Solving for k, Initial residual = 0.00458535, Final residual = 0.000366552, No Iterations 6
ExecutionTime = 0.173931 s  ClockTime = 0 s

Time = 62s

smoothSolver:  Solving for Ux, Initial residual = 0.00351394, Final residual = 0.000328379, No Iterations 6
smoothSolver:  Solving for Uy, Initial residual = 0.0294682, Final residual = 0.00271245, No Iterations 6
Pressure gradient source: uncorrected Ubar = 1.00003, pressure gradient = -0.18599
GAMG:  Solving for p, Initial residual = 0.0470845, Final residual = 0.00165941, No Iterations 4
time step continuity errors : sum local = 3.36079e-06, global = -2.97626e-18, cumulative = 4.04478e-17
Pressure gradient source: uncorrected Ubar = 0.999999, pressure gradient = -0.175642
smoothSolver:  Solving for omega, Initial residual = 8.37058e-06, Final residual = 8.37058e-06, No Iterations 0
smoothSolver:  Solving for k, Initial residual = 0.00442873, Final residual = 0.000352519, No Iterations 6
ExecutionTime = 0.176426 s  ClockTime = 0 s

Time = 63s

smoothSolver:  Solving for Ux, Initial residual = 0.00345206, Final residual = 0.000323355, No Iterations 6
smoothSolver:  Solving for Uy, Initial residual = 0.030151, Final residual = 0.00278681, No Iterations 6
Pressure gradient source: uncorrected Ubar = 1.00002, pressure gradient = -0.1819
GAMG:  Solving for p, Initial residual = 0.0431141, Final residual = 0.00331379, No Iterations 3
time step continuity errors : sum local = 5.85232e-06, global = -5.3052e-18, cumulative = 3.51426e-17
Pressure gradient source: uncorrected Ubar = 0.999997, pressure gradient = -0.174818
smoothSolver:  Solving for omega, Initial residual = 8.35654e-06, Final residual = 8.35654e-06, No Iterations 0
smoothSolver:  Solving for k, Initial residual = 0.00428391, Final residual = 0.000343408, No Iterations 6
ExecutionTime = 0.178909 s  ClockTime = 0 s

Time = 64s

smoothSolver:  Solving for Ux, Initial residual = 0.0033997, Final residual = 0.000318247, No Iterations 6
smoothSolver:  Solving for Uy, Initial residual = 0.0305521, Final residual = 0.00280713, No Iterations 6
Pressure gradient source: uncorrected Ubar = 1.00001, pressure gradient = -0.179019
GAMG:  Solving for p, Initial residual = 0.0402885, Final residual = 0.00367068, No Iterations 3
time step continuity errors : sum local = 6.3886e-06, global = -4.60106e-18, cumulative = 3.05415e-17
Pressure gradient source: uncorrected Ubar = 0.999996, pressure gradient = -0.173756
smoothSolver:  Solving for omega, Initial residual = 8.34355e-06, Final residual = 8.34355e-06, No Iterations 0
smoothSolver:  Solving for k, Initial residual = 0.00413966, Final residual = 0.00032984, No Iterations 6
ExecutionTime = 0.181409 s  ClockTime = 0 s

Time = 65s

smoothSolver:  Solving for Ux, Initial residual = 0.00334617, Final residual = 0.000312735, No Iterations 6
smoothSolver:  Solving for Uy, Initial residual = 0.0307113, Final residual = 0.00279601, No Iterations 6
Pressure gradient source: uncorrected Ubar = 1.00001, pressure gradient = -0.176854
GAMG:  Solving for p, Initial residual = 0.0381974, Final residual = 0.0035135, No Iterations 4
time step continuity errors : sum local = 6.41125e-06, global = 1.37792e-18, cumulative = 3.19194e-17
Pressure gradient source: uncorrected Ubar = 0.999996, pressure gradient = -0.17259
smoothSolver:  Solving for omega, Initial residual = 8.32886e-06, Final residual = 8.32886e-06, No Iterations 0
smoothSolver:  Solving for k, Initial residual = 0.00400826, Final residual = 0.000320199, No Iterations 6
ExecutionTime = 0.183914 s  ClockTime = 0 s

Time = 66s

smoothSolver:  Solving for Ux, Initial residual = 0.00328373, Final residual = 0.000306652, No Iterations 6
smoothSolver:  Solving for Uy, Initial residual = 0.0301032, Final residual = 0.00271969, No Iterations 6
Pressure gradient source: uncorrected Ubar = 1.00001, pressure gradient = -0.175527
GAMG:  Solving for p, Initial residual = 0.0370475, Final residual = 0.00324341, No Iterations 5
time step continuity errors : sum local = 6.03613e-06, global = -6.58187e-18, cumulative = 2.53376e-17
Pressure gradient source: uncorrected Ubar = 0.999996, pressure gradient = -0.171456
smoothSolver:  Solving for omega, Initial residual = 8.31397e-06, Final residual = 8.31397e-06, No Iterations 0
smoothSolver:  Solving for k, Initial residual = 0.0038753, Final residual = 0.000306246, No Iterations 6
ExecutionTime = 0.186471 s  ClockTime = 0 s

Time = 67s

smoothSolver:  Solving for Ux, Initial residual = 0.00320629, Final residual = 0.000299869, No Iterations 6
smoothSolver:  Solving for Uy, Initial residual = 0.0287283, Final residual = 0.00258511, No Iterations 6
Pressure gradient source: uncorrected Ubar = 1.00001, pressure gradient = -0.175185
GAMG:  Solving for p, Initial residual = 0.037305, Final residual = 0.00330891, No Iterations 9
time step continuity errors : sum local = 5.85665e-06, global = 8.441e-18, cumulative = 3.37786e-17
Pressure gradient source: uncorrected Ubar = 0.999997, pressure gradient = -0.170492
smoothSolver:  Solving for omega, Initial residual = 8.2995e-06, Final residual = 8.2995e-06, No Iterations 0
smoothSolver:  Solving for k, Initial residual = 0.0037419, Final residual = 0.000296562, No Iterations 6
ExecutionTime = 0.189224 s  ClockTime = 0 s

Time = 68s

smoothSolver:  Solving for Ux, Initial residual = 0.00310625, Final residual = 0.000292227, No Iterations 6
smoothSolver:  Solving for Uy, Initial residual = 0.0268442, Final residual = 0.00238943, No Iterations 6
Pressure gradient source: uncorrected Ubar = 1.00002, pressure gradient = -0.175939
GAMG:  Solving for p, Initial residual = 0.0408671, Final residual = 0.00392444, No Iterations 12
time step continuity errors : sum local = 6.48405e-06, global = -5.4803e-19, cumulative = 3.32305e-17
Pressure gradient source: uncorrected Ubar = 0.999998, pressure gradient = -0.169834
smoothSolver:  Solving for omega, Initial residual = 8.28835e-06, Final residual = 8.28835e-06, No Iterations 0
smoothSolver:  Solving for k, Initial residual = 0.00361462, Final residual = 0.000282623, No Iterations 6
ExecutionTime = 0.192106 s  ClockTime = 0 s

Time = 69s

smoothSolver:  Solving for Ux, Initial residual = 0.00299157, Final residual = 0.00028445, No Iterations 6
smoothSolver:  Solving for Uy, Initial residual = 0.0251777, Final residual = 0.0021198, No Iterations 6
Pressure gradient source: uncorrected Ubar = 1.00002, pressure gradient = -0.176163
GAMG:  Solving for p, Initial residual = 0.045959, Final residual = 0.00438109, No Iterations 7
time step continuity errors : sum local = 6.61447e-06, global = 8.86901e-18, cumulative = 4.20995e-17
Pressure gradient source: uncorrected Ubar = 0.999998, pressure gradient = -0.16937
smoothSolver:  Solving for omega, Initial residual = 8.27825e-06, Final residual = 8.27825e-06, No Iterations 0
smoothSolver:  Solving for k, Initial residual = 0.00351339, Final residual = 0.000272488, No Iterations 6
ExecutionTime = 0.194755 s  ClockTime = 0 s

Time = 70s

smoothSolver:  Solving for Ux, Initial residual = 0.00293265, Final residual = 0.000280049, No Iterations 6
smoothSolver:  Solving for Uy, Initial residual = 0.0234814, Final residual = 0.00205126, No Iterations 6
Pressure gradient source: uncorrected Ubar = 1, pressure gradient = -0.169324
GAMG:  Solving for p, Initial residual = 0.046431, Final residual = 0.00457163, No Iterations 8
time step continuity errors : sum local = 6.6918e-06, global = 8.88789e-19, cumulative = 4.29883e-17
Pressure gradient source: uncorrected Ubar = 0.999996, pressure gradient = -0.168081
smoothSolver:  Solving for omega, Initial residual = 8.26506e-06, Final residual = 8.26506e-06, No Iterations 0
smoothSolver:  Solving for k, Initial residual = 0.00333362, Final residual = 0.000261011, No Iterations 6
ExecutionTime = 0.197456 s  ClockTime = 0 s

Time = 71s

smoothSolver:  Solving for Ux, Initial residual = 0.00289368, Final residual = 0.000276835, No Iterations 6
smoothSolver:  Solving for Uy, Initial residual = 0.0254392, Final residual = 0.00229027, No Iterations 6
Pressure gradient source: uncorrected Ubar = 0.999995, pressure gradient = -0.16652
GAMG:  Solving for p, Initial residual = 0.0485432, Final residual = 0.00341684, No Iterations 5
time step continuity errors : sum local = 5.56113e-06, global = -5.41053e-18, cumulative = 3.75778e-17
Pressure gradient source: uncorrected Ubar = 0.999995, pressure gradient = -0.166617
smoothSolver:  Solving for omega, Initial residual = 8.25313e-06, Final residual = 8.25313e-06, No Iterations 0
smoothSolver:  Solving for k, Initial residual = 0.00321607, Final residual = 0.000253846, No Iterations 6
ExecutionTime = 0.200029 s  ClockTime = 0 s

Time = 72s

smoothSolver:  Solving for Ux, Initial residual = 0.00284954, Final residual = 0.00027327, No Iterations 6
smoothSolver:  Solving for Uy, Initial residual = 0.0265587, Final residual = 0.00240618, No Iterations 6
Pressure gradient source: uncorrected Ubar = 0.999997, pressure gradient = -0.165838
GAMG:  Solving for p, Initial residual = 0.0454418, Final residual = 0.00405002, No Iterations 5
time step continuity errors : sum local = 6.93528e-06, global = 6.65715e-18, cumulative = 4.4235e-17
Pressure gradient source: uncorrected Ubar = 0.999995, pressure gradient = -0.165293
smoothSolver:  Solving for omega, Initial residual = 8.24333e-06, Final residual = 8.24333e-06, No Iterations 0
smoothSolver:  Solving for k, Initial residual = 0.00309138, Final residual = 0.000244068, No Iterations 6
ExecutionTime = 0.202581 s  ClockTime = 0 s

Time = 73s

smoothSolver:  Solving for Ux, Initial residual = 0.00280301, Final residual = 0.000269359, No Iterations 6
smoothSolver:  Solving for Uy, Initial residual = 0.0268748, Final residual = 0.00243301, No Iterations 6
Pressure gradient source: uncorrected Ubar = 0.999999, pressure gradient = -0.164873
GAMG:  Solving for p, Initial residual = 0.0416095, Final residual = 0.00361312, No Iterations 5
time step continuity errors : sum local = 6.14504e-06, global = -4.58682e-19, cumulative = 4.37763e-17
Pressure gradient source: uncorrected Ubar = 0.999996, pressure gradient = -0.164047
smoothSolver:  Solving for omega, Initial residual = 8.2379e-06, Final residual = 8.2379e-06, No Iterations 0
smoothSolver:  Solving for k, Initial residual = 0.00297491, Final residual = 0.000235533, No Iterations 6
ExecutionTime = 0.205125 s  ClockTime = 0 s

Time = 74s

smoothSolver:  Solving for Ux, Initial residual = 0.00275485, Final residual = 0.000265143, No Iterations 6
smoothSolver:  Solving for Uy, Initial residual = 0.0266734, Final residual = 0.00241847, No Iterations 6
Pressure gradient source: uncorrected Ubar = 0.999999, pressure gradient = -0.163883
GAMG:  Solving for p, Initial residual = 0.0379887, Final residual = 0.00328372, No Iterations 4
time step continuity errors : sum local = 5.19822e-06, global = -2.72687e-18, cumulative = 4.10494e-17
Pressure gradient source: uncorrected Ubar = 0.999996, pressure gradient = -0.162865
smoothSolver:  Solving for omega, Initial residual = 8.23303e-06, Final residual = 8.23303e-06, No Iterations 0
smoothSolver:  Solving for k, Initial residual = 0.00285819, Final residual = 0.000224429, No Iterations 6
ExecutionTime = 0.207678 s  ClockTime = 0 s

Time = 75s

smoothSolver:  Solving for Ux, Initial residual = 0.00270606, Final residual = 0.000260706, No Iterations 6
smoothSolver:  Solving for Uy, Initial residual = 0.0259427, Final residual = 0.00234946, No Iterations 6
Pressure gradient source: uncorrected Ubar = 1, pressure gradient = -0.162899
GAMG:  Solving for p, Initial residual = 0.0349834, Final residual = 0.00309817, No Iterations 5
time step continuity errors : sum local = 4.9703e-06, global = -6.93122e-18, cumulative = 3.41182e-17
Pressure gradient source: uncorrected Ubar = 0.999996, pressure gradient = -0.16174
smoothSolver:  Solving for omega, Initial residual = 8.22712e-06, Final residual = 8.22712e-06, No Iterations 0
smoothSolver:  Solving for k, Initial residual = 0.00274647, Final residual = 0.000216885, No Iterations 6
ExecutionTime = 0.210227 s  ClockTime = 0 s

Time = 76s

smoothSolver:  Solving for Ux, Initial residual = 0.00265674, Final residual = 0.000256109, No Iterations 6
smoothSolver:  Solving for Uy, Initial residual = 0.0247162, Final residual = 0.00223122, No Iterations 6
Pressure gradient source: uncorrected Ubar = 1, pressure gradient = -0.161906
GAMG:  Solving for p, Initial residual = 0.0328554, Final residual = 0.00289633, No Iterations 5
time step continuity errors : sum local = 4.82986e-06, global = 1.42767e-18, cumulative = 3.55459e-17
Pressure gradient source: uncorrected Ubar = 0.999996, pressure gradient = -0.160661
smoothSolver:  Solving for omega, Initial residual = 8.21939e-06, Final residual = 8.21939e-06, No Iterations 0
smoothSolver:  Solving for k, Initial residual = 0.0026371, Final residual = 0.00020831, No Iterations 6
ExecutionTime = 0.212786 s  ClockTime = 0 s

Time = 77s

smoothSolver:  Solving for Ux, Initial residual = 0.00260738, Final residual = 0.000251405, No Iterations 6
smoothSolver:  Solving for Uy, Initial residual = 0.0232397, Final residual = 0.00209416, No Iterations 6
Pressure gradient source: uncorrected Ubar = 1, pressure gradient = -0.160915
GAMG:  Solving for p, Initial residual = 0.0307668, Final residual = 0.00276483, No Iterations 5
time step continuity errors : sum local = 4.55591e-06, global = -5.76988e-18, cumulative = 2.9776e-17
Pressure gradient source: uncorrected Ubar = 0.999996, pressure gradient = -0.159622
smoothSolver:  Solving for omega, Initial residual = 8.21231e-06, Final residual = 8.21231e-06, No Iterations 0
smoothSolver:  Solving for k, Initial residual = 0.00253444, Final residual = 0.000200277, No Iterations 6
ExecutionTime = 0.215336 s  ClockTime = 0 s

Time = 78s

smoothSolver:  Solving for Ux, Initial residual = 0.00255807, Final residual = 0.000246637, No Iterations 6
smoothSolver:  Solving for Uy, Initial residual = 0.0217864, Final residual = 0.00196102, No Iterations 6
Pressure gradient source: uncorrected Ubar = 1, pressure gradient = -0.159981
GAMG:  Solving for p, Initial residual = 0.029134, Final residual = 0.0022212, No Iterations 7
time step continuity errors : sum local = 3.47814e-06, global = 4.63973e-18, cumulative = 3.44157e-17
Pressure gradient source: uncorrected Ubar = 0.999996, pressure gradient = -0.158626
smoothSolver:  Solving for omega, Initial residual = 8.20527e-06, Final residual = 8.20527e-06, No Iterations 0
smoothSolver:  Solving for k, Initial residual = 0.00243916, Final residual = 0.000191935, No Iterations 6
ExecutionTime = 0.217994 s  ClockTime = 0 s

Time = 79s

smoothSolver:  Solving for Ux, Initial residual = 0.00250892, Final residual = 0.000241839, No Iterations 6
smoothSolver:  Solving for Uy, Initial residual = 0.0203111, Final residual = 0.00182665, No Iterations 6
Pressure gradient source: uncorrected Ubar = 1, pressure gradient = -0.159073
GAMG:  Solving for p, Initial residual = 0.0272334, Final residual = 0.00250352, No Iterations 6
time step continuity errors : sum local = 3.60293e-06, global = 3.24228e-18, cumulative = 3.7658e-17
Pressure gradient source: uncorrected Ubar = 0.999997, pressure gradient = -0.15767
smoothSolver:  Solving for omega, Initial residual = 8.19846e-06, Final residual = 8.19846e-06, No Iterations 0
smoothSolver:  Solving for k, Initial residual = 0.00235465, Final residual = 0.000183752, No Iterations 6
ExecutionTime = 0.220603 s  ClockTime = 0 s

Time = 80s

smoothSolver:  Solving for Ux, Initial residual = 0.00245968, Final residual = 0.00023704, No Iterations 6
smoothSolver:  Solving for Uy, Initial residual = 0.0194021, Final residual = 0.00174341, No Iterations 6
Pressure gradient source: uncorrected Ubar = 1, pressure gradient = -0.158234
GAMG:  Solving for p, Initial residual = 0.0255244, Final residual = 0.00243607, No Iterations 5
time step continuity errors : sum local = 3.35361e-06, global = 6.91968e-18, cumulative = 4.45777e-17
Pressure gradient source: uncorrected Ubar = 0.999997, pressure gradient = -0.156759
smoothSolver:  Solving for omega, Initial residual = 8.19178e-06, Final residual = 8.19178e-06, No Iterations 0
smoothSolver:  Solving for k, Initial residual = 0.0022741, Final residual = 0.000176393, No Iterations 6
ExecutionTime = 0.223155 s  ClockTime = 0 s

Time = 81s

smoothSolver:  Solving for Ux, Initial residual = 0.00241033, Final residual = 0.000232241, No Iterations 6
smoothSolver:  Solving for Uy, Initial residual = 0.0189024, Final residual = 0.00169653, No Iterations 6
Pressure gradient source: uncorrected Ubar = 1, pressure gradient = -0.157314
GAMG:  Solving for p, Initial residual = 0.025503, Final residual = 0.00246236, No Iterations 4
time step continuity errors : sum local = 3.21328e-06, global = -3.05329e-20, cumulative = 4.45471e-17
Pressure gradient source: uncorrected Ubar = 0.999997, pressure gradient = -0.155873
smoothSolver:  Solving for omega, Initial residual = 8.18465e-06, Final residual = 8.18465e-06, No Iterations 0
smoothSolver:  Solving for k, Initial residual = 0.00219638, Final residual = 0.000168891, No Iterations 6
ExecutionTime = 0.225677 s  ClockTime = 0 s

Time = 82s

smoothSolver:  Solving for Ux, Initial residual = 0.00236073, Final residual = 0.000227465, No Iterations 6
smoothSolver:  Solving for Uy, Initial residual = 0.0184541, Final residual = 0.00165352, No Iterations 6
Pressure gradient source: uncorrected Ubar = 1, pressure gradient = -0.15651
GAMG:  Solving for p, Initial residual = 0.0276463, Final residual = 0.00248133, No Iterations 3
time step continuity errors : sum local = 3.22536e-06, global = 1.08195e-18, cumulative = 4.56291e-17
Pressure gradient source: uncorrected Ubar = 0.999997, pressure gradient = -0.155027
smoothSolver:  Solving for omega, Initial residual = 8.17775e-06, Final residual = 8.17775e-06, No Iterations 0
smoothSolver:  Solving for k, Initial residual = 0.00213035, Final residual = 0.000162249, No Iterations 6
ExecutionTime = 0.228197 s  ClockTime = 0 s

Time = 83s

smoothSolver:  Solving for Ux, Initial residual = 0.00231055, Final residual = 0.000222732, No Iterations 6
smoothSolver:  Solving for Uy, Initial residual = 0.017918, Final residual = 0.00160461, No Iterations 6
Pressure gradient source: uncorrected Ubar = 1, pressure gradient = -0.15579
GAMG:  Solving for p, Initial residual = 0.0292095, Final residual = 0.00250947, No Iterations 4
time step continuity errors : sum local = 3.30168e-06, global = -6.39868e-18, cumulative = 3.92304e-17
Pressure gradient source: uncorrected Ubar = 0.999997, pressure gradient = -0.154226
smoothSolver:  Solving for omega, Initial residual = 8.17082e-06, Final residual = 8.17082e-06, No Iterations 0
smoothSolver:  Solving for k, Initial residual = 0.00206583, Final residual = 0.000157868, No Iterations 6
ExecutionTime = 0.230692 s  ClockTime = 0 s

Time = 84s

smoothSolver:  Solving for Ux, Initial residual = 0.00225958, Final residual = 0.000218033, No Iterations 6
smoothSolver:  Solving for Uy, Initial residual = 0.0171602, Final residual = 0.00152556, No Iterations 6
Pressure gradient source: uncorrected Ubar = 1, pressure gradient = -0.155004
GAMG:  Solving for p, Initial residual = 0.0270097, Final residual = 0.00212211, No Iterations 5
time step continuity errors : sum local = 2.913e-06, global = -6.33554e-18, cumulative = 3.28949e-17
Pressure gradient source: uncorrected Ubar = 0.999997, pressure gradient = -0.153454
smoothSolver:  Solving for omega, Initial residual = 8.1633e-06, Final residual = 8.1633e-06, No Iterations 0
smoothSolver:  Solving for k, Initial residual = 0.00201657, Final residual = 0.000154585, No Iterations 6
ExecutionTime = 0.233236 s  ClockTime = 0 s

Time = 85s

smoothSolver:  Solving for Ux, Initial residual = 0.00220838, Final residual = 0.000213445, No Iterations 6
smoothSolver:  Solving for Uy, Initial residual = 0.0161553, Final residual = 0.00142311, No Iterations 6
Pressure gradient source: uncorrected Ubar = 1, pressure gradient = -0.154386
GAMG:  Solving for p, Initial residual = 0.0260858, Final residual = 0.00257416, No Iterations 4
time step continuity errors : sum local = 3.49492e-06, global = -7.16855e-19, cumulative = 3.2178e-17
Pressure gradient source: uncorrected Ubar = 0.999997, pressure gradient = -0.15273
smoothSolver:  Solving for omega, Initial residual = 8.15623e-06, Final residual = 8.15623e-06, No Iterations 0
smoothSolver:  Solving for k, Initial residual = 0.00196516, Final residual = 0.000150173, No Iterations 6
ExecutionTime = 0.235739 s  ClockTime = 0 s

Time = 86s

smoothSolver:  Solving for Ux, Initial residual = 0.00216382, Final residual = 0.000209368, No Iterations 6
smoothSolver:  Solving for Uy, Initial residual = 0.0145018, Final residual = 0.00127372, No Iterations 6
Pressure gradient source: uncorrected Ubar = 1, pressure gradient = -0.15309
GAMG:  Solving for p, Initial residual = 0.027488, Final residual = 0.0022601, No Iterations 4
time step continuity errors : sum local = 3.01873e-06, global = -5.21894e-18, cumulative = 2.69591e-17
Pressure gradient source: uncorrected Ubar = 0.999997, pressure gradient = -0.151953
smoothSolver:  Solving for omega, Initial residual = 8.14929e-06, Final residual = 8.14929e-06, No Iterations 0
smoothSolver:  Solving for k, Initial residual = 0.00190213, Final residual = 0.000148269, No Iterations 6
ExecutionTime = 0.238253 s  ClockTime = 0 s

Time = 87s

smoothSolver:  Solving for Ux, Initial residual = 0.00212179, Final residual = 0.000205595, No Iterations 6
smoothSolver:  Solving for Uy, Initial residual = 0.0143146, Final residual = 0.00121732, No Iterations 6
Pressure gradient source: uncorrected Ubar = 1, pressure gradient = -0.152191
GAMG:  Solving for p, Initial residual = 0.0284775, Final residual = 0.00251405, No Iterations 12
time step continuity errors : sum local = 3.3374e-06, global = -4.47821e-18, cumulative = 2.24809e-17
Pressure gradient source: uncorrected Ubar = 0.999997, pressure gradient = -0.151182
smoothSolver:  Solving for omega, Initial residual = 8.13979e-06, Final residual = 8.13979e-06, No Iterations 0
smoothSolver:  Solving for k, Initial residual = 0.0018444, Final residual = 0.000144818, No Iterations 6
ExecutionTime = 0.241149 s  ClockTime = 0 s

Time = 88s

smoothSolver:  Solving for Ux, Initial residual = 0.00209819, Final residual = 0.000202967, No Iterations 6
smoothSolver:  Solving for Uy, Initial residual = 0.0160048, Final residual = 0.00143066, No Iterations 6
Pressure gradient source: uncorrected Ubar = 0.999994, pressure gradient = -0.149639
GAMG:  Solving for p, Initial residual = 0.0339908, Final residual = 0.00300312, No Iterations 11
time step continuity errors : sum local = 3.67252e-06, global = 1.84669e-18, cumulative = 2.43276e-17
Pressure gradient source: uncorrected Ubar = 0.999996, pressure gradient = -0.150184
smoothSolver:  Solving for omega, Initial residual = 8.13445e-06, Final residual = 8.13445e-06, No Iterations 0
smoothSolver:  Solving for k, Initial residual = 0.00176936, Final residual = 0.000142228, No Iterations 6
ExecutionTime = 0.24396 s  ClockTime = 0 s

Time = 89s

smoothSolver:  Solving for Ux, Initial residual = 0.00207617, Final residual = 0.000200566, No Iterations 6
smoothSolver:  Solving for Uy, Initial residual = 0.017482, Final residual = 0.00158009, No Iterations 6
Pressure gradient source: uncorrected Ubar = 0.999995, pressure gradient = -0.148786
GAMG:  Solving for p, Initial residual = 0.031091, Final residual = 0.00309752, No Iterations 11
[...]
smoothSolver:  Solving for omega, Initial residual = 7.84493e-06, Final residual = 7.84493e-06, No Iterations 0
smoothSolver:  Solving for k, Initial residual = 2.43565e-05, Final residual = 7.04718e-06, No Iterations 3
ExecutionTime = 5.65732 s  ClockTime = 6 s

Time = 2187s

smoothSolver:  Solving for Ux, Initial residual = 1.38788e-05, Final residual = 9.13221e-06, No Iterations 1
smoothSolver:  Solving for Uy, Initial residual = 0.000102975, Final residual = 7.90141e-06, No Iterations 5
Pressure gradient source: uncorrected Ubar = 1, pressure gradient = 0.0351394
GAMG:  Solving for p, Initial residual = 6.25994e-05, Final residual = 2.41315e-06, No Iterations 4
time step continuity errors : sum local = 1.01705e-10, global = 2.59013e-18, cumulative = 6.66442e-17
Pressure gradient source: uncorrected Ubar = 1, pressure gradient = 0.0351413
smoothSolver:  Solving for omega, Initial residual = 7.84493e-06, Final residual = 7.84493e-06, No Iterations 0
smoothSolver:  Solving for k, Initial residual = 2.43238e-05, Final residual = 7.0377e-06, No Iterations 3
ExecutionTime = 5.65976 s  ClockTime = 6 s

Time = 2188s

smoothSolver:  Solving for Ux, Initial residual = 1.3868e-05, Final residual = 9.12509e-06, No Iterations 1
smoothSolver:  Solving for Uy, Initial residual = 0.000105768, Final residual = 8.21211e-06, No Iterations 5
Pressure gradient source: uncorrected Ubar = 1, pressure gradient = 0.0351388
GAMG:  Solving for p, Initial residual = 6.12789e-05, Final residual = 5.4883e-06, No Iterations 3
time step continuity errors : sum local = 2.27801e-10, global = -4.9836e-19, cumulative = 6.61458e-17
Pressure gradient source: uncorrected Ubar = 1, pressure gradient = 0.0351407
smoothSolver:  Solving for omega, Initial residual = 7.84493e-06, Final residual = 7.84493e-06, No Iterations 0
smoothSolver:  Solving for k, Initial residual = 2.42912e-05, Final residual = 7.02824e-06, No Iterations 3
ExecutionTime = 5.66215 s  ClockTime = 6 s

Time = 2189s

smoothSolver:  Solving for Ux, Initial residual = 1.38572e-05, Final residual = 9.11795e-06, No Iterations 1
smoothSolver:  Solving for Uy, Initial residual = 0.000103546, Final residual = 7.98782e-06, No Iterations 5
Pressure gradient source: uncorrected Ubar = 1, pressure gradient = 0.0351383
GAMG:  Solving for p, Initial residual = 6.20567e-05, Final residual = 5.62739e-06, No Iterations 3
time step continuity errors : sum local = 2.33439e-10, global = 1.5869e-18, cumulative = 6.77327e-17
Pressure gradient source: uncorrected Ubar = 1, pressure gradient = 0.0351402
smoothSolver:  Solving for omega, Initial residual = 7.84493e-06, Final residual = 7.84493e-06, No Iterations 0
smoothSolver:  Solving for k, Initial residual = 2.42585e-05, Final residual = 7.01878e-06, No Iterations 3
ExecutionTime = 5.66452 s  ClockTime = 6 s

Time = 2190s

smoothSolver:  Solving for Ux, Initial residual = 1.38463e-05, Final residual = 9.11079e-06, No Iterations 1
smoothSolver:  Solving for Uy, Initial residual = 0.000102606, Final residual = 7.86578e-06, No Iterations 5
Pressure gradient source: uncorrected Ubar = 1, pressure gradient = 0.0351377
GAMG:  Solving for p, Initial residual = 6.22687e-05, Final residual = 2.42883e-06, No Iterations 4
time step continuity errors : sum local = 1.02683e-10, global = 3.52908e-18, cumulative = 7.12618e-17
Pressure gradient source: uncorrected Ubar = 1, pressure gradient = 0.0351396
smoothSolver:  Solving for omega, Initial residual = 7.84493e-06, Final residual = 7.84493e-06, No Iterations 0
smoothSolver:  Solving for k, Initial residual = 2.42259e-05, Final residual = 7.00934e-06, No Iterations 3
ExecutionTime = 5.66696 s  ClockTime = 6 s

Time = 2191s

smoothSolver:  Solving for Ux, Initial residual = 1.38355e-05, Final residual = 9.10363e-06, No Iterations 1
smoothSolver:  Solving for Uy, Initial residual = 0.000105404, Final residual = 8.1804e-06, No Iterations 5
Pressure gradient source: uncorrected Ubar = 1, pressure gradient = 0.0351371
GAMG:  Solving for p, Initial residual = 6.09368e-05, Final residual = 5.54523e-06, No Iterations 3
time step continuity errors : sum local = 2.30581e-10, global = -1.49584e-18, cumulative = 6.9766e-17
Pressure gradient source: uncorrected Ubar = 1, pressure gradient = 0.035139
smoothSolver:  Solving for omega, Initial residual = 7.84493e-06, Final residual = 7.84493e-06, No Iterations 0
smoothSolver:  Solving for k, Initial residual = 2.41934e-05, Final residual = 6.9999e-06, No Iterations 3
ExecutionTime = 5.66937 s  ClockTime = 6 s

Time = 2192s

smoothSolver:  Solving for Ux, Initial residual = 1.38246e-05, Final residual = 9.09644e-06, No Iterations 1
smoothSolver:  Solving for Uy, Initial residual = 0.000103431, Final residual = 7.97723e-06, No Iterations 5
Pressure gradient source: uncorrected Ubar = 1, pressure gradient = 0.0351365
GAMG:  Solving for p, Initial residual = 6.16632e-05, Final residual = 5.34445e-06, No Iterations 3
time step continuity errors : sum local = 2.20411e-10, global = -3.52341e-18, cumulative = 6.62425e-17
Pressure gradient source: uncorrected Ubar = 1, pressure gradient = 0.0351385
smoothSolver:  Solving for omega, Initial residual = 7.84492e-06, Final residual = 7.84492e-06, No Iterations 0
smoothSolver:  Solving for k, Initial residual = 2.41608e-05, Final residual = 6.99048e-06, No Iterations 3
ExecutionTime = 5.67173 s  ClockTime = 6 s

Time = 2193s

smoothSolver:  Solving for Ux, Initial residual = 1.38137e-05, Final residual = 9.08925e-06, No Iterations 1
smoothSolver:  Solving for Uy, Initial residual = 0.000101459, Final residual = 7.73497e-06, No Iterations 5
Pressure gradient source: uncorrected Ubar = 1, pressure gradient = 0.035136
GAMG:  Solving for p, Initial residual = 6.29492e-05, Final residual = 5.85108e-06, No Iterations 3
time step continuity errors : sum local = 2.42629e-10, global = 1.66169e-18, cumulative = 6.79042e-17
Pressure gradient source: uncorrected Ubar = 1, pressure gradient = 0.0351379
smoothSolver:  Solving for omega, Initial residual = 7.84492e-06, Final residual = 7.84492e-06, No Iterations 0
smoothSolver:  Solving for k, Initial residual = 2.41284e-05, Final residual = 6.98107e-06, No Iterations 3
ExecutionTime = 5.6741 s  ClockTime = 6 s

Time = 2194s

smoothSolver:  Solving for Ux, Initial residual = 1.38028e-05, Final residual = 9.08204e-06, No Iterations 1
smoothSolver:  Solving for Uy, Initial residual = 0.000101935, Final residual = 7.77229e-06, No Iterations 5
Pressure gradient source: uncorrected Ubar = 1, pressure gradient = 0.0351354
GAMG:  Solving for p, Initial residual = 6.24213e-05, Final residual = 2.33292e-06, No Iterations 4
time step continuity errors : sum local = 9.95852e-11, global = -6.21566e-18, cumulative = 6.16886e-17
Pressure gradient source: uncorrected Ubar = 1, pressure gradient = 0.0351373
smoothSolver:  Solving for omega, Initial residual = 7.84492e-06, Final residual = 7.84492e-06, No Iterations 0
smoothSolver:  Solving for k, Initial residual = 2.40959e-05, Final residual = 6.97167e-06, No Iterations 3
ExecutionTime = 5.6765 s  ClockTime = 6 s

Time = 2195s

smoothSolver:  Solving for Ux, Initial residual = 1.37918e-05, Final residual = 9.07481e-06, No Iterations 1
smoothSolver:  Solving for Uy, Initial residual = 0.000106918, Final residual = 8.34586e-06, No Iterations 5
Pressure gradient source: uncorrected Ubar = 1, pressure gradient = 0.0351348
GAMG:  Solving for p, Initial residual = 6.03935e-05, Final residual = 2.27424e-06, No Iterations 4
time step continuity errors : sum local = 9.87163e-11, global = -2.97976e-18, cumulative = 5.87088e-17
Pressure gradient source: uncorrected Ubar = 1, pressure gradient = 0.0351367
smoothSolver:  Solving for omega, Initial residual = 7.84492e-06, Final residual = 7.84492e-06, No Iterations 0
smoothSolver:  Solving for k, Initial residual = 2.40635e-05, Final residual = 6.96228e-06, No Iterations 3
ExecutionTime = 5.67898 s  ClockTime = 6 s

Time = 2196s

smoothSolver:  Solving for Ux, Initial residual = 1.37809e-05, Final residual = 9.06758e-06, No Iterations 1
smoothSolver:  Solving for Uy, Initial residual = 0.000106392, Final residual = 8.27692e-06, No Iterations 5
Pressure gradient source: uncorrected Ubar = 1, pressure gradient = 0.0351343
GAMG:  Solving for p, Initial residual = 5.9777e-05, Final residual = 2.19144e-06, No Iterations 4
time step continuity errors : sum local = 9.29906e-11, global = -2.01304e-18, cumulative = 5.66958e-17
Pressure gradient source: uncorrected Ubar = 1, pressure gradient = 0.0351362
smoothSolver:  Solving for omega, Initial residual = 7.84492e-06, Final residual = 7.84492e-06, No Iterations 0
smoothSolver:  Solving for k, Initial residual = 2.40311e-05, Final residual = 6.95291e-06, No Iterations 3
ExecutionTime = 5.68149 s  ClockTime = 6 s

Time = 2197s

smoothSolver:  Solving for Ux, Initial residual = 1.37699e-05, Final residual = 9.06033e-06, No Iterations 1
smoothSolver:  Solving for Uy, Initial residual = 0.000104516, Final residual = 8.09222e-06, No Iterations 5
Pressure gradient source: uncorrected Ubar = 1, pressure gradient = 0.0351337
GAMG:  Solving for p, Initial residual = 5.98433e-05, Final residual = 2.23931e-06, No Iterations 4
time step continuity errors : sum local = 9.60248e-11, global = 7.43162e-18, cumulative = 6.41274e-17
Pressure gradient source: uncorrected Ubar = 1, pressure gradient = 0.0351356
smoothSolver:  Solving for omega, Initial residual = 7.84492e-06, Final residual = 7.84492e-06, No Iterations 0
smoothSolver:  Solving for k, Initial residual = 2.39988e-05, Final residual = 6.94354e-06, No Iterations 3
ExecutionTime = 5.68396 s  ClockTime = 6 s

Time = 2198s

smoothSolver:  Solving for Ux, Initial residual = 1.37589e-05, Final residual = 9.05306e-06, No Iterations 1
smoothSolver:  Solving for Uy, Initial residual = 0.000103061, Final residual = 7.92445e-06, No Iterations 5
Pressure gradient source: uncorrected Ubar = 1, pressure gradient = 0.0351331
GAMG:  Solving for p, Initial residual = 5.96301e-05, Final residual = 2.31128e-06, No Iterations 4
time step continuity errors : sum local = 9.78689e-11, global = -5.61916e-18, cumulative = 5.85082e-17
Pressure gradient source: uncorrected Ubar = 1, pressure gradient = 0.035135
smoothSolver:  Solving for omega, Initial residual = 7.84492e-06, Final residual = 7.84492e-06, No Iterations 0
smoothSolver:  Solving for k, Initial residual = 2.39665e-05, Final residual = 6.93418e-06, No Iterations 3
ExecutionTime = 5.68639 s  ClockTime = 6 s

Time = 2199s

smoothSolver:  Solving for Ux, Initial residual = 1.37479e-05, Final residual = 9.04579e-06, No Iterations 1
smoothSolver:  Solving for Uy, Initial residual = 0.000102044, Final residual = 7.83603e-06, No Iterations 5
Pressure gradient source: uncorrected Ubar = 1, pressure gradient = 0.0351326
GAMG:  Solving for p, Initial residual = 5.99166e-05, Final residual = 2.39478e-06, No Iterations 4
time step continuity errors : sum local = 1.03445e-10, global = 1.45651e-18, cumulative = 5.99647e-17
Pressure gradient source: uncorrected Ubar = 1, pressure gradient = 0.0351345
smoothSolver:  Solving for omega, Initial residual = 7.84492e-06, Final residual = 7.84492e-06, No Iterations 0
smoothSolver:  Solving for k, Initial residual = 2.39343e-05, Final residual = 6.92484e-06, No Iterations 3
ExecutionTime = 5.68882 s  ClockTime = 6 s

Time = 2200s

smoothSolver:  Solving for Ux, Initial residual = 1.37368e-05, Final residual = 9.0385e-06, No Iterations 1
smoothSolver:  Solving for Uy, Initial residual = 0.000101965, Final residual = 7.79397e-06, No Iterations 5
Pressure gradient source: uncorrected Ubar = 1, pressure gradient = 0.035132
GAMG:  Solving for p, Initial residual = 5.96977e-05, Final residual = 2.28288e-06, No Iterations 4
time step continuity errors : sum local = 9.81401e-11, global = -8.35573e-18, cumulative = 5.1609e-17
Pressure gradient source: uncorrected Ubar = 1, pressure gradient = 0.0351339
smoothSolver:  Solving for omega, Initial residual = 7.84491e-06, Final residual = 7.84491e-06, No Iterations 0
smoothSolver:  Solving for k, Initial residual = 2.3902e-05, Final residual = 6.91551e-06, No Iterations 3
ExecutionTime = 5.69125 s  ClockTime = 6 s

Time = 2201s

smoothSolver:  Solving for Ux, Initial residual = 1.37258e-05, Final residual = 9.03119e-06, No Iterations 1
smoothSolver:  Solving for Uy, Initial residual = 0.000101711, Final residual = 7.82297e-06, No Iterations 5
Pressure gradient source: uncorrected Ubar = 1, pressure gradient = 0.0351314
GAMG:  Solving for p, Initial residual = 5.96581e-05, Final residual = 2.40907e-06, No Iterations 4
time step continuity errors : sum local = 1.05264e-10, global = 5.47394e-18, cumulative = 5.7083e-17
Pressure gradient source: uncorrected Ubar = 1, pressure gradient = 0.0351333
smoothSolver:  Solving for omega, Initial residual = 7.84491e-06, Final residual = 7.84491e-06, No Iterations 0
smoothSolver:  Solving for k, Initial residual = 2.38699e-05, Final residual = 6.90618e-06, No Iterations 3
ExecutionTime = 5.69368 s  ClockTime = 6 s

Time = 2202s

smoothSolver:  Solving for Ux, Initial residual = 1.37147e-05, Final residual = 9.02388e-06, No Iterations 1
smoothSolver:  Solving for Uy, Initial residual = 0.000101912, Final residual = 7.80105e-06, No Iterations 5
Pressure gradient source: uncorrected Ubar = 1, pressure gradient = 0.0351309
GAMG:  Solving for p, Initial residual = 5.94612e-05, Final residual = 2.26332e-06, No Iterations 4
time step continuity errors : sum local = 9.80164e-11, global = -5.50583e-18, cumulative = 5.15771e-17
Pressure gradient source: uncorrected Ubar = 1, pressure gradient = 0.0351328
smoothSolver:  Solving for omega, Initial residual = 7.84491e-06, Final residual = 7.84491e-06, No Iterations 0
smoothSolver:  Solving for k, Initial residual = 2.38377e-05, Final residual = 6.89687e-06, No Iterations 3
ExecutionTime = 5.69612 s  ClockTime = 6 s

Time = 2203s

smoothSolver:  Solving for Ux, Initial residual = 1.37036e-05, Final residual = 9.01655e-06, No Iterations 1
smoothSolver:  Solving for Uy, Initial residual = 0.000101583, Final residual = 7.82402e-06, No Iterations 5
Pressure gradient source: uncorrected Ubar = 1, pressure gradient = 0.0351303
GAMG:  Solving for p, Initial residual = 5.94172e-05, Final residual = 2.37469e-06, No Iterations 4
time step continuity errors : sum local = 1.04031e-10, global = -2.22026e-18, cumulative = 4.93569e-17
Pressure gradient source: uncorrected Ubar = 1, pressure gradient = 0.0351322
smoothSolver:  Solving for omega, Initial residual = 7.84491e-06, Final residual = 7.84491e-06, No Iterations 0
smoothSolver:  Solving for k, Initial residual = 2.38056e-05, Final residual = 6.88757e-06, No Iterations 3
ExecutionTime = 5.69858 s  ClockTime = 6 s

Time = 2204s

smoothSolver:  Solving for Ux, Initial residual = 1.36925e-05, Final residual = 9.00921e-06, No Iterations 1
smoothSolver:  Solving for Uy, Initial residual = 0.000101489, Final residual = 7.77944e-06, No Iterations 5
Pressure gradient source: uncorrected Ubar = 1, pressure gradient = 0.0351298
GAMG:  Solving for p, Initial residual = 5.92055e-05, Final residual = 2.27581e-06, No Iterations 4
time step continuity errors : sum local = 9.83756e-11, global = -2.54997e-18, cumulative = 4.68069e-17
Pressure gradient source: uncorrected Ubar = 1, pressure gradient = 0.0351316
smoothSolver:  Solving for omega, Initial residual = 7.84491e-06, Final residual = 7.84491e-06, No Iterations 0
smoothSolver:  Solving for k, Initial residual = 2.37735e-05, Final residual = 6.87828e-06, No Iterations 3
ExecutionTime = 5.70103 s  ClockTime = 6 s

Time = 2205s

smoothSolver:  Solving for Ux, Initial residual = 1.36813e-05, Final residual = 9.00186e-06, No Iterations 1
smoothSolver:  Solving for Uy, Initial residual = 0.000101094, Final residual = 7.78339e-06, No Iterations 5
Pressure gradient source: uncorrected Ubar = 1, pressure gradient = 0.0351292
GAMG:  Solving for p, Initial residual = 5.92557e-05, Final residual = 2.33799e-06, No Iterations 4
time step continuity errors : sum local = 1.02238e-10, global = 2.12753e-18, cumulative = 4.89344e-17
Pressure gradient source: uncorrected Ubar = 1, pressure gradient = 0.0351311
smoothSolver:  Solving for omega, Initial residual = 7.84491e-06, Final residual = 7.84491e-06, No Iterations 0
smoothSolver:  Solving for k, Initial residual = 2.37415e-05, Final residual = 6.86901e-06, No Iterations 3
ExecutionTime = 5.70345 s  ClockTime = 6 s

Time = 2206s

smoothSolver:  Solving for Ux, Initial residual = 1.36702e-05, Final residual = 8.99449e-06, No Iterations 1
smoothSolver:  Solving for Uy, Initial residual = 0.000100838, Final residual = 7.73406e-06, No Iterations 5
Pressure gradient source: uncorrected Ubar = 1, pressure gradient = 0.0351286
GAMG:  Solving for p, Initial residual = 5.89851e-05, Final residual = 2.29753e-06, No Iterations 4
time step continuity errors : sum local = 9.89663e-11, global = -1.18329e-18, cumulative = 4.77511e-17
Pressure gradient source: uncorrected Ubar = 1, pressure gradient = 0.0351305
smoothSolver:  Solving for omega, Initial residual = 7.84491e-06, Final residual = 7.84491e-06, No Iterations 0
smoothSolver:  Solving for k, Initial residual = 2.37095e-05, Final residual = 6.85974e-06, No Iterations 3
ExecutionTime = 5.70585 s  ClockTime = 6 s

Time = 2207s

smoothSolver:  Solving for Ux, Initial residual = 1.3659e-05, Final residual = 8.98711e-06, No Iterations 1
smoothSolver:  Solving for Uy, Initial residual = 0.000100361, Final residual = 7.71509e-06, No Iterations 5
Pressure gradient source: uncorrected Ubar = 1, pressure gradient = 0.0351281
GAMG:  Solving for p, Initial residual = 5.91211e-05, Final residual = 2.29393e-06, No Iterations 4
time step continuity errors : sum local = 1.00205e-10, global = -2.03889e-18, cumulative = 4.57122e-17
Pressure gradient source: uncorrected Ubar = 1, pressure gradient = 0.03513
smoothSolver:  Solving for omega, Initial residual = 7.84491e-06, Final residual = 7.84491e-06, No Iterations 0
smoothSolver:  Solving for k, Initial residual = 2.36776e-05, Final residual = 6.85048e-06, No Iterations 3
ExecutionTime = 5.70829 s  ClockTime = 6 s

Time = 2208s

smoothSolver:  Solving for Ux, Initial residual = 1.36478e-05, Final residual = 8.97972e-06, No Iterations 1
smoothSolver:  Solving for Uy, Initial residual = 0.000100148, Final residual = 7.67703e-06, No Iterations 5
Pressure gradient source: uncorrected Ubar = 1, pressure gradient = 0.0351275
GAMG:  Solving for p, Initial residual = 5.87565e-05, Final residual = 2.31858e-06, No Iterations 4
time step continuity errors : sum local = 9.96766e-11, global = 4.90524e-18, cumulative = 5.06175e-17
Pressure gradient source: uncorrected Ubar = 1, pressure gradient = 0.0351294
smoothSolver:  Solving for omega, Initial residual = 7.84491e-06, Final residual = 7.84491e-06, No Iterations 0
smoothSolver:  Solving for k, Initial residual = 2.36456e-05, Final residual = 6.84124e-06, No Iterations 3
ExecutionTime = 5.71073 s  ClockTime = 6 s

Time = 2209s

smoothSolver:  Solving for Ux, Initial residual = 1.36366e-05, Final residual = 8.97232e-06, No Iterations 1
smoothSolver:  Solving for Uy, Initial residual = 9.95308e-05, Final residual = 7.63371e-06, No Iterations 5
Pressure gradient source: uncorrected Ubar = 1, pressure gradient = 0.035127
GAMG:  Solving for p, Initial residual = 5.89819e-05, Final residual = 2.24251e-06, No Iterations 4
time step continuity errors : sum local = 9.80064e-11, global = 3.20054e-18, cumulative = 5.3818e-17
Pressure gradient source: uncorrected Ubar = 1, pressure gradient = 0.0351288
smoothSolver:  Solving for omega, Initial residual = 7.8449e-06, Final residual = 7.8449e-06, No Iterations 0
smoothSolver:  Solving for k, Initial residual = 2.36138e-05, Final residual = 6.832e-06, No Iterations 3
ExecutionTime = 5.71316 s  ClockTime = 6 s


SIMPLE solution converged in 2209 iterations

End

