/*---------------------------------------------------------------------------*\
  =========                 |
  \\      /  F ield         | OpenFOAM: The Open Source CFD Toolbox
   \\    /   O peration     | Website:  https://openfoam.org
    \\  /    A nd           | Version:  10
     \\/     M anipulation  |
\*---------------------------------------------------------------------------*/
Build  : 10-e450dce21ea5
Exec   : blockMesh
Date   : Feb 20 2023
Time   : 14:12:33
Host   : "w530-R9YK46P"
PID    : 18670
I/O    : uncollated
Case   : /home/jdmezazeron/gitDanielMezaZ/turbulenceVisualized/Data/SimulationFiles/K22_Re1206
nProcs : 1
sigFpe : Enabling floating point exception trapping (FOAM_SIGFPE).
fileModificationChecking : Monitoring run-time modified files using timeStampMaster (fileModificationSkew 10)
allowSystemOperations : Allowing user-supplied system call operations

// * * * * * * * * * * * * * * * * * * * * * * * * * * * * * * * * * * * * * //
Create time

Deleting polyMesh directory
    "/home/jdmezazeron/gitDanielMezaZ/turbulenceVisualized/Data/SimulationFiles/K22_Re1206/constant/polyMesh"
Reading "blockMeshDict"

Creating block mesh from
    "system/blockMeshDict"
Creating block edges
No non-planar block faces defined
Creating topology blocks
Creating topology patches

Creating block mesh topology

Check topology

	Basic statistics
		Number of internal faces : 0
		Number of boundary faces : 6
		Number of defined boundary faces : 6
		Number of undefined boundary faces : 0
	Checking patch -> block consistency

Creating block offsets
Creating merge list .

Creating polyMesh from blockMesh
Creating patches
Creating cells
Creating points with scale 1
    Block 0 cell size :
        i : 0.5
        j : 0.00461374 .. 0.018455
        k : 2

Detected cyclic patches; ordering boundary faces

Writing polyMesh
----------------
Mesh Information
----------------
  boundingBox: (-1 0 -1) (1 1 1)
  nPoints: 1010
  nCells: 400
  nFaces: 1704
  nInternalFaces: 696
----------------
Patches
----------------
  patch 0 (start: 696 size: 100) name: inlet
  patch 1 (start: 796 size: 100) name: outlet
  patch 2 (start: 896 size: 4) name: fixedWalls-bottom
  patch 3 (start: 900 size: 4) name: fixedWalls-top
  patch 4 (start: 904 size: 800) name: frontAndBack

End

/*---------------------------------------------------------------------------*\
  =========                 |
  \\      /  F ield         | OpenFOAM: The Open Source CFD Toolbox
   \\    /   O peration     | Website:  https://openfoam.org
    \\  /    A nd           | Version:  10
     \\/     M anipulation  |
\*---------------------------------------------------------------------------*/
Build  : 10-e450dce21ea5
Exec   : simpleFoam
Date   : Feb 20 2023
Time   : 14:12:33
Host   : "w530-R9YK46P"
PID    : 18671
I/O    : uncollated
Case   : /home/jdmezazeron/gitDanielMezaZ/turbulenceVisualized/Data/SimulationFiles/K22_Re1206
nProcs : 1
sigFpe : Enabling floating point exception trapping (FOAM_SIGFPE).
fileModificationChecking : Monitoring run-time modified files using timeStampMaster (fileModificationSkew 10)
allowSystemOperations : Allowing user-supplied system call operations

// * * * * * * * * * * * * * * * * * * * * * * * * * * * * * * * * * * * * * //
Create time

Create mesh for time = 0


SIMPLE: Convergence criteria found
        U: tolerance 0.0001
        p: tolerance 0.01
        omega: tolerance 0.0001

Reading field p

Reading field U

Reading/calculating face flux field phi

Selecting viscosity model Newtonian
Selecting turbulence model type RAS
Selecting RAS turbulence model kOmegaSST
Selecting patchDistMethod meshWave
RAS
{
    RASModel        kOmegaSST;
    turbulence      on;
    printCoeffs     on;
    alphaK1         0.85;
    alphaK2         1;
    alphaOmega1     0.5;
    alphaOmega2     0.856;
    gamma1          0.555556;
    gamma2          0.44;
    beta1           0.075;
    beta2           0.0828;
    betaStar        0.09;
    a1              0.31;
    b1              1;
    c1              10;
    F3              false;
}

No MRF models present

--> FOAM Warning : Creating fvModels from "system/fvOptions" rather than constant/fvModels
No fvModels present
--> FOAM Warning : Creating fvConstraints from "system/fvOptions"

Selecting finite volume constraint type meanVelocityForce
    Name: momentumSource
    - selecting all cells
    - selected 400 cell(s) with volume 4
    Initial pressure gradient = 0


Starting time loop

turbulenceFields stressComponents: storing fields:
    R

Time = 1s

smoothSolver:  Solving for Ux, Initial residual = 0, Final residual = 0, No Iterations 0
smoothSolver:  Solving for Uy, Initial residual = 0, Final residual = 0, No Iterations 0
Pressure gradient source: uncorrected Ubar = 0, pressure gradient = 1355.83
GAMG:  Solving for p, Initial residual = 0.999996, Final residual = 0.0638081, No Iterations 3
time step continuity errors : sum local = 1.1353e-16, global = 4.84481e-18, cumulative = 4.84481e-18
Pressure gradient source: uncorrected Ubar = 0.884652, pressure gradient = 156.392
smoothSolver:  Solving for omega, Initial residual = 0.186033, Final residual = 0.0112405, No Iterations 3
smoothSolver:  Solving for k, Initial residual = 1, Final residual = 0.0496105, No Iterations 2
ExecutionTime = 0.014084 s  ClockTime = 0 s

Time = 2s

smoothSolver:  Solving for Ux, Initial residual = 0.987148, Final residual = 0.0889233, No Iterations 6
smoothSolver:  Solving for Uy, Initial residual = 1, Final residual = 0.092941, No Iterations 5
Pressure gradient source: uncorrected Ubar = 33.9701, pressure gradient = -1167.2
GAMG:  Solving for p, Initial residual = 1, Final residual = 0.0811958, No Iterations 8
time step continuity errors : sum local = 0.0228083, global = -4.76507e-17, cumulative = -4.28059e-17
Pressure gradient source: uncorrected Ubar = 5.22639, pressure gradient = -13.2781
smoothSolver:  Solving for omega, Initial residual = 0.196223, Final residual = 0.000884837, No Iterations 1
smoothSolver:  Solving for k, Initial residual = 0.978088, Final residual = 0.0185058, No Iterations 1
ExecutionTime = 0.016912 s  ClockTime = 0 s

Time = 3s

smoothSolver:  Solving for Ux, Initial residual = 0.479449, Final residual = 0.0398453, No Iterations 6
smoothSolver:  Solving for Uy, Initial residual = 0.491755, Final residual = 0.0205234, No Iterations 3
Pressure gradient source: uncorrected Ubar = -1.04304, pressure gradient = 98.9089
GAMG:  Solving for p, Initial residual = 0.201292, Final residual = 0.0158789, No Iterations 4
time step continuity errors : sum local = 0.00902911, global = -1.68322e-17, cumulative = -5.96381e-17
Pressure gradient source: uncorrected Ubar = 0.747711, pressure gradient = 0.575477
smoothSolver:  Solving for omega, Initial residual = 0.00935763, Final residual = 0.000216854, No Iterations 1
smoothSolver:  Solving for k, Initial residual = 0.367777, Final residual = 0.0187716, No Iterations 2
ExecutionTime = 0.01947 s  ClockTime = 0 s

Time = 4s

smoothSolver:  Solving for Ux, Initial residual = 0.0784406, Final residual = 0.00613959, No Iterations 4
smoothSolver:  Solving for Uy, Initial residual = 0.23304, Final residual = 0.0181207, No Iterations 3
Pressure gradient source: uncorrected Ubar = 1.00369, pressure gradient = 0.416562
GAMG:  Solving for p, Initial residual = 0.129539, Final residual = 0.0122013, No Iterations 11
time step continuity errors : sum local = 0.00978359, global = 2.91108e-17, cumulative = -3.05273e-17
Pressure gradient source: uncorrected Ubar = 0.999825, pressure gradient = 0.583027
smoothSolver:  Solving for omega, Initial residual = 0.00793418, Final residual = 0.000175492, No Iterations 1
smoothSolver:  Solving for k, Initial residual = 0.337683, Final residual = 0.0214877, No Iterations 3
ExecutionTime = 0.022208 s  ClockTime = 0 s

Time = 5s

smoothSolver:  Solving for Ux, Initial residual = 0.0643367, Final residual = 0.00581537, No Iterations 4
smoothSolver:  Solving for Uy, Initial residual = 0.280612, Final residual = 0.022273, No Iterations 3
Pressure gradient source: uncorrected Ubar = 0.985211, pressure gradient = 1.31355
GAMG:  Solving for p, Initial residual = 0.1298, Final residual = 0.0127853, No Iterations 10
time step continuity errors : sum local = 0.00983095, global = -2.89474e-17, cumulative = -5.94746e-17
Pressure gradient source: uncorrected Ubar = 0.997189, pressure gradient = 0.721885
smoothSolver:  Solving for omega, Initial residual = 0.00352793, Final residual = 0.000209048, No Iterations 1
smoothSolver:  Solving for k, Initial residual = 0.589428, Final residual = 0.0254596, No Iterations 3
ExecutionTime = 0.024948 s  ClockTime = 0 s

Time = 6s

smoothSolver:  Solving for Ux, Initial residual = 0.0592566, Final residual = 0.00507592, No Iterations 4
smoothSolver:  Solving for Uy, Initial residual = 0.522565, Final residual = 0.0402455, No Iterations 3
Pressure gradient source: uncorrected Ubar = 0.960397, pressure gradient = 2.97193
GAMG:  Solving for p, Initial residual = 0.151906, Final residual = 0.0149576, No Iterations 8
time step continuity errors : sum local = 0.009063, global = 1.25565e-17, cumulative = -4.69181e-17
Pressure gradient source: uncorrected Ubar = 0.993993, pressure gradient = 1.06317
smoothSolver:  Solving for omega, Initial residual = 0.00289817, Final residual = 0.000174811, No Iterations 2
smoothSolver:  Solving for k, Initial residual = 0.448625, Final residual = 0.0176807, No Iterations 3
ExecutionTime = 0.027601 s  ClockTime = 0 s

Time = 7s

smoothSolver:  Solving for Ux, Initial residual = 0.0461084, Final residual = 0.00407772, No Iterations 4
smoothSolver:  Solving for Uy, Initial residual = 0.540217, Final residual = 0.0377733, No Iterations 3
Pressure gradient source: uncorrected Ubar = 0.968122, pressure gradient = 2.99714
GAMG:  Solving for p, Initial residual = 0.191347, Final residual = 0.0184637, No Iterations 6
time step continuity errors : sum local = 0.00816926, global = 2.0762e-17, cumulative = -2.61561e-17
Pressure gradient source: uncorrected Ubar = 0.995504, pressure gradient = 1.33596
smoothSolver:  Solving for omega, Initial residual = 0.00193927, Final residual = 0.000104842, No Iterations 2
smoothSolver:  Solving for k, Initial residual = 0.189907, Final residual = 0.0143473, No Iterations 3
ExecutionTime = 0.030134 s  ClockTime = 0 s

Time = 8s

smoothSolver:  Solving for Ux, Initial residual = 0.0418941, Final residual = 0.00388459, No Iterations 4
smoothSolver:  Solving for Uy, Initial residual = 0.295181, Final residual = 0.0154073, No Iterations 3
Pressure gradient source: uncorrected Ubar = 1.00878, pressure gradient = 0.754122
GAMG:  Solving for p, Initial residual = 0.148954, Final residual = 0.0100853, No Iterations 7
time step continuity errors : sum local = 0.00363587, global = -7.69784e-18, cumulative = -3.38539e-17
Pressure gradient source: uncorrected Ubar = 1.001, pressure gradient = 1.26945
smoothSolver:  Solving for omega, Initial residual = 0.00113508, Final residual = 8.2196e-05, No Iterations 2
smoothSolver:  Solving for k, Initial residual = 0.106222, Final residual = 0.0102438, No Iterations 3
ExecutionTime = 0.032745 s  ClockTime = 0 s

Time = 9s

smoothSolver:  Solving for Ux, Initial residual = 0.0347651, Final residual = 0.00328296, No Iterations 4
smoothSolver:  Solving for Uy, Initial residual = 0.191936, Final residual = 0.0175508, No Iterations 3
Pressure gradient source: uncorrected Ubar = 0.996959, pressure gradient = 1.49227
GAMG:  Solving for p, Initial residual = 0.128135, Final residual = 0.00924118, No Iterations 7
time step continuity errors : sum local = 0.00259536, global = 1.53957e-17, cumulative = -1.84582e-17
Pressure gradient source: uncorrected Ubar = 0.999481, pressure gradient = 1.3075
smoothSolver:  Solving for omega, Initial residual = 0.000721603, Final residual = 4.61764e-05, No Iterations 3
smoothSolver:  Solving for k, Initial residual = 0.0872878, Final residual = 0.0056771, No Iterations 4
ExecutionTime = 0.035384 s  ClockTime = 0 s

Time = 10s

smoothSolver:  Solving for Ux, Initial residual = 0.0295427, Final residual = 0.00283075, No Iterations 4
smoothSolver:  Solving for Uy, Initial residual = 0.208069, Final residual = 0.0196094, No Iterations 3
Pressure gradient source: uncorrected Ubar = 0.993256, pressure gradient = 1.86862
GAMG:  Solving for p, Initial residual = 0.143556, Final residual = 0.0123055, No Iterations 8
time step continuity errors : sum local = 0.00283215, global = -3.86018e-17, cumulative = -5.70601e-17
Pressure gradient source: uncorrected Ubar = 0.998976, pressure gradient = 1.39269
smoothSolver:  Solving for omega, Initial residual = 0.00055297, Final residual = 4.71002e-05, No Iterations 3
smoothSolver:  Solving for k, Initial residual = 0.0714115, Final residual = 0.00630373, No Iterations 4
ExecutionTime = 0.03804 s  ClockTime = 0 s

Time = 11s

smoothSolver:  Solving for Ux, Initial residual = 0.0257241, Final residual = 0.00251573, No Iterations 4
smoothSolver:  Solving for Uy, Initial residual = 0.171746, Final residual = 0.00961467, No Iterations 4
Pressure gradient source: uncorrected Ubar = 0.996875, pressure gradient = 1.69047
GAMG:  Solving for p, Initial residual = 0.170283, Final residual = 0.00994839, No Iterations 9
time step continuity errors : sum local = 0.00234516, global = 2.16838e-17, cumulative = -3.53762e-17
Pressure gradient source: uncorrected Ubar = 0.999418, pressure gradient = 1.44812
smoothSolver:  Solving for omega, Initial residual = 0.000434289, Final residual = 2.84136e-05, No Iterations 4
smoothSolver:  Solving for k, Initial residual = 0.0596715, Final residual = 0.0035293, No Iterations 5
ExecutionTime = 0.040796 s  ClockTime = 0 s

Time = 12s

smoothSolver:  Solving for Ux, Initial residual = 0.0229291, Final residual = 0.00229052, No Iterations 4
smoothSolver:  Solving for Uy, Initial residual = 0.174309, Final residual = 0.00970574, No Iterations 4
Pressure gradient source: uncorrected Ubar = 0.999686, pressure gradient = 1.48165
GAMG:  Solving for p, Initial residual = 0.148612, Final residual = 0.0115331, No Iterations 9
time step continuity errors : sum local = 0.00239751, global = 2.6023e-18, cumulative = -3.27739e-17
Pressure gradient source: uncorrected Ubar = 0.99979, pressure gradient = 1.47051
smoothSolver:  Solving for omega, Initial residual = 0.000351136, Final residual = 2.9784e-05, No Iterations 4
smoothSolver:  Solving for k, Initial residual = 0.0508692, Final residual = 0.00357127, No Iterations 5
ExecutionTime = 0.043544 s  ClockTime = 0 s

Time = 13s

smoothSolver:  Solving for Ux, Initial residual = 0.0208809, Final residual = 0.00136056, No Iterations 5
smoothSolver:  Solving for Uy, Initial residual = 0.179687, Final residual = 0.0107259, No Iterations 4
Pressure gradient source: uncorrected Ubar = 1.00018, pressure gradient = 1.44931
GAMG:  Solving for p, Initial residual = 0.128178, Final residual = 0.0106065, No Iterations 10
time step continuity errors : sum local = 0.00198405, global = -1.90269e-17, cumulative = -5.18008e-17
Pressure gradient source: uncorrected Ubar = 0.999895, pressure gradient = 1.48286
smoothSolver:  Solving for omega, Initial residual = 0.000305901, Final residual = 2.99157e-05, No Iterations 4
smoothSolver:  Solving for k, Initial residual = 0.0424004, Final residual = 0.0032316, No Iterations 5
ExecutionTime = 0.046329 s  ClockTime = 0 s

Time = 14s

smoothSolver:  Solving for Ux, Initial residual = 0.0191283, Final residual = 0.00126812, No Iterations 5
smoothSolver:  Solving for Uy, Initial residual = 0.177375, Final residual = 0.0146503, No Iterations 4
Pressure gradient source: uncorrected Ubar = 1.00135, pressure gradient = 1.30861
GAMG:  Solving for p, Initial residual = 0.112023, Final residual = 0.00996589, No Iterations 11
time step continuity errors : sum local = 0.00196034, global = -1.78936e-18, cumulative = -5.35902e-17
Pressure gradient source: uncorrected Ubar = 1.00007, pressure gradient = 1.47369
smoothSolver:  Solving for omega, Initial residual = 0.000265647, Final residual = 1.77166e-05, No Iterations 5
smoothSolver:  Solving for k, Initial residual = 0.0364357, Final residual = 0.00306363, No Iterations 5
ExecutionTime = 0.049176 s  ClockTime = 0 s

Time = 15s

smoothSolver:  Solving for Ux, Initial residual = 0.0177031, Final residual = 0.00118981, No Iterations 5
smoothSolver:  Solving for Uy, Initial residual = 0.177517, Final residual = 0.0159668, No Iterations 4
Pressure gradient source: uncorrected Ubar = 1.00142, pressure gradient = 1.27365
GAMG:  Solving for p, Initial residual = 0.0857071, Final residual = 0.00817092, No Iterations 11
time step continuity errors : sum local = 0.00186648, global = 9.0803e-18, cumulative = -4.45099e-17
Pressure gradient source: uncorrected Ubar = 1.00006, pressure gradient = 1.46572
smoothSolver:  Solving for omega, Initial residual = 0.00024467, Final residual = 1.90458e-05, No Iterations 5
smoothSolver:  Solving for k, Initial residual = 0.0314624, Final residual = 0.0027674, No Iterations 5
ExecutionTime = 0.052055 s  ClockTime = 0 s

Time = 16s

smoothSolver:  Solving for Ux, Initial residual = 0.0165263, Final residual = 0.00112915, No Iterations 5
smoothSolver:  Solving for Uy, Initial residual = 0.162948, Final residual = 0.0151505, No Iterations 4
Pressure gradient source: uncorrected Ubar = 1.00171, pressure gradient = 1.20521
GAMG:  Solving for p, Initial residual = 0.0677098, Final residual = 0.00665338, No Iterations 11
time step continuity errors : sum local = 0.00166574, global = -3.47346e-17, cumulative = -7.92445e-17
Pressure gradient source: uncorrected Ubar = 1.00011, pressure gradient = 1.44941
smoothSolver:  Solving for omega, Initial residual = 0.000216948, Final residual = 1.77073e-05, No Iterations 5
smoothSolver:  Solving for k, Initial residual = 0.0275385, Final residual = 0.00254315, No Iterations 5
ExecutionTime = 0.054922 s  ClockTime = 0 s

Time = 17s

smoothSolver:  Solving for Ux, Initial residual = 0.0155224, Final residual = 0.00107362, No Iterations 5
smoothSolver:  Solving for Uy, Initial residual = 0.142339, Final residual = 0.00858701, No Iterations 5
Pressure gradient source: uncorrected Ubar = 1.00184, pressure gradient = 1.14689
GAMG:  Solving for p, Initial residual = 0.0542692, Final residual = 0.00441918, No Iterations 11
time step continuity errors : sum local = 0.00115023, global = 1.22379e-17, cumulative = -6.70066e-17
Pressure gradient source: uncorrected Ubar = 1.00013, pressure gradient = 1.42844
smoothSolver:  Solving for omega, Initial residual = 0.000206059, Final residual = 1.76255e-05, No Iterations 5
smoothSolver:  Solving for k, Initial residual = 0.024305, Final residual = 0.00232807, No Iterations 5
ExecutionTime = 0.057774 s  ClockTime = 0 s

Time = 18s

smoothSolver:  Solving for Ux, Initial residual = 0.0146409, Final residual = 0.00102812, No Iterations 5
smoothSolver:  Solving for Uy, Initial residual = 0.119162, Final residual = 0.00791256, No Iterations 5
Pressure gradient source: uncorrected Ubar = 1.00173, pressure gradient = 1.12192
GAMG:  Solving for p, Initial residual = 0.0429348, Final residual = 0.0032196, No Iterations 10
time step continuity errors : sum local = 0.000820761, global = 1.74285e-17, cumulative = -4.9578e-17
Pressure gradient source: uncorrected Ubar = 1.00011, pressure gradient = 1.40876
smoothSolver:  Solving for omega, Initial residual = 0.000193464, Final residual = 1.7778e-05, No Iterations 5
smoothSolver:  Solving for k, Initial residual = 0.0215372, Final residual = 0.00136253, No Iterations 6
ExecutionTime = 0.060724 s  ClockTime = 0 s

Time = 19s

smoothSolver:  Solving for Ux, Initial residual = 0.0138944, Final residual = 0.000986748, No Iterations 5
smoothSolver:  Solving for Uy, Initial residual = 0.106298, Final residual = 0.00705909, No Iterations 5
Pressure gradient source: uncorrected Ubar = 1.00193, pressure gradient = 1.04337
GAMG:  Solving for p, Initial residual = 0.0326797, Final residual = 0.00302927, No Iterations 8
time step continuity errors : sum local = 0.000662428, global = -2.04633e-18, cumulative = -5.16244e-17
Pressure gradient source: uncorrected Ubar = 1.00014, pressure gradient = 1.38266
smoothSolver:  Solving for omega, Initial residual = 0.000183899, Final residual = 1.7677e-05, No Iterations 5
smoothSolver:  Solving for k, Initial residual = 0.0191404, Final residual = 0.00125043, No Iterations 6
ExecutionTime = 0.063467 s  ClockTime = 0 s

Time = 20s

smoothSolver:  Solving for Ux, Initial residual = 0.0131986, Final residual = 0.000949925, No Iterations 5
smoothSolver:  Solving for Uy, Initial residual = 0.0926841, Final residual = 0.00647087, No Iterations 5
Pressure gradient source: uncorrected Ubar = 1.00197, pressure gradient = 0.98602
GAMG:  Solving for p, Initial residual = 0.025095, Final residual = 0.00238333, No Iterations 9
time step continuity errors : sum local = 0.000384632, global = 8.00864e-18, cumulative = -4.36157e-17
Pressure gradient source: uncorrected Ubar = 1.00015, pressure gradient = 1.35327
smoothSolver:  Solving for omega, Initial residual = 0.000175055, Final residual = 1.69807e-05, No Iterations 5
smoothSolver:  Solving for k, Initial residual = 0.0170645, Final residual = 0.00113677, No Iterations 6
ExecutionTime = 0.066315 s  ClockTime = 0 s

Time = 21s

smoothSolver:  Solving for Ux, Initial residual = 0.012615, Final residual = 0.000918135, No Iterations 5
smoothSolver:  Solving for Uy, Initial residual = 0.0814954, Final residual = 0.00609037, No Iterations 5
Pressure gradient source: uncorrected Ubar = 1.00195, pressure gradient = 0.938487
GAMG:  Solving for p, Initial residual = 0.0225379, Final residual = 0.00202245, No Iterations 11
time step continuity errors : sum local = 0.000278085, global = -3.72022e-18, cumulative = -4.73359e-17
Pressure gradient source: uncorrected Ubar = 1.00015, pressure gradient = 1.32206
smoothSolver:  Solving for omega, Initial residual = 0.000166011, Final residual = 1.10384e-05, No Iterations 6
smoothSolver:  Solving for k, Initial residual = 0.0153226, Final residual = 0.00104822, No Iterations 6
ExecutionTime = 0.069199 s  ClockTime = 0 s

Time = 22s

smoothSolver:  Solving for Ux, Initial residual = 0.0120835, Final residual = 0.000887203, No Iterations 5
smoothSolver:  Solving for Uy, Initial residual = 0.0648197, Final residual = 0.0051934, No Iterations 5
Pressure gradient source: uncorrected Ubar = 1.00179, pressure gradient = 0.924626
GAMG:  Solving for p, Initial residual = 0.02017, Final residual = 0.00176222, No Iterations 16
time step continuity errors : sum local = 0.000226224, global = 1.82281e-17, cumulative = -2.91078e-17
Pressure gradient source: uncorrected Ubar = 1.00013, pressure gradient = 1.29309
smoothSolver:  Solving for omega, Initial residual = 0.00015698, Final residual = 1.04806e-05, No Iterations 6
smoothSolver:  Solving for k, Initial residual = 0.0138884, Final residual = 0.000966843, No Iterations 6
ExecutionTime = 0.072303 s  ClockTime = 0 s

Time = 23s

smoothSolver:  Solving for Ux, Initial residual = 0.011596, Final residual = 0.000861868, No Iterations 5
smoothSolver:  Solving for Uy, Initial residual = 0.0469754, Final residual = 0.00409038, No Iterations 5
Pressure gradient source: uncorrected Ubar = 1.00166, pressure gradient = 0.905552
GAMG:  Solving for p, Initial residual = 0.0173829, Final residual = 0.00166482, No Iterations 18
time step continuity errors : sum local = 0.000174791, global = 7.98921e-18, cumulative = -2.11186e-17
Pressure gradient source: uncorrected Ubar = 1.00012, pressure gradient = 1.26567
smoothSolver:  Solving for omega, Initial residual = 0.000150892, Final residual = 1.04249e-05, No Iterations 6
smoothSolver:  Solving for k, Initial residual = 0.0127512, Final residual = 0.000893621, No Iterations 6
ExecutionTime = 0.075501 s  ClockTime = 0 s

Time = 24s

smoothSolver:  Solving for Ux, Initial residual = 0.0111641, Final residual = 0.000836587, No Iterations 5
smoothSolver:  Solving for Uy, Initial residual = 0.0405261, Final residual = 0.00367527, No Iterations 5
Pressure gradient source: uncorrected Ubar = 1.00148, pressure gradient = 0.905088
GAMG:  Solving for p, Initial residual = 0.0176399, Final residual = 0.00155083, No Iterations 18
time step continuity errors : sum local = 0.00012986, global = 6.83725e-18, cumulative = -1.42813e-17
Pressure gradient source: uncorrected Ubar = 1.0001, pressure gradient = 1.24162
smoothSolver:  Solving for omega, Initial residual = 0.000145544, Final residual = 1.03694e-05, No Iterations 6
smoothSolver:  Solving for k, Initial residual = 0.0118314, Final residual = 0.000832015, No Iterations 6
ExecutionTime = 0.078686 s  ClockTime = 0 s

Time = 25s

smoothSolver:  Solving for Ux, Initial residual = 0.0107669, Final residual = 0.000812875, No Iterations 5
smoothSolver:  Solving for Uy, Initial residual = 0.0373432, Final residual = 0.00359313, No Iterations 5
Pressure gradient source: uncorrected Ubar = 1.00142, pressure gradient = 0.880747
GAMG:  Solving for p, Initial residual = 0.0156963, Final residual = 0.00138444, No Iterations 16
time step continuity errors : sum local = 9.67794e-05, global = 2.06845e-17, cumulative = 6.40321e-18
Pressure gradient source: uncorrected Ubar = 1.00009, pressure gradient = 1.21769
smoothSolver:  Solving for omega, Initial residual = 0.0001405, Final residual = 1.02118e-05, No Iterations 6
smoothSolver:  Solving for k, Initial residual = 0.0110712, Final residual = 0.000761981, No Iterations 6
ExecutionTime = 0.081802 s  ClockTime = 0 s

Time = 26s

smoothSolver:  Solving for Ux, Initial residual = 0.0103924, Final residual = 0.000792798, No Iterations 5
smoothSolver:  Solving for Uy, Initial residual = 0.0341422, Final residual = 0.00220986, No Iterations 6
Pressure gradient source: uncorrected Ubar = 1.00128, pressure gradient = 0.877942
GAMG:  Solving for p, Initial residual = 0.0126501, Final residual = 0.00113878, No Iterations 6
time step continuity errors : sum local = 6.88423e-05, global = -9.4461e-18, cumulative = -3.04288e-18
Pressure gradient source: uncorrected Ubar = 1.00008, pressure gradient = 1.19645
smoothSolver:  Solving for omega, Initial residual = 0.000136198, Final residual = 9.71688e-06, No Iterations 6
smoothSolver:  Solving for k, Initial residual = 0.0104816, Final residual = 0.000717898, No Iterations 6
ExecutionTime = 0.084512 s  ClockTime = 0 s

Time = 27s

smoothSolver:  Solving for Ux, Initial residual = 0.0100638, Final residual = 0.000773703, No Iterations 5
smoothSolver:  Solving for Uy, Initial residual = 0.0314773, Final residual = 0.00206155, No Iterations 6
Pressure gradient source: uncorrected Ubar = 1.00117, pressure gradient = 0.874223
GAMG:  Solving for p, Initial residual = 0.0125787, Final residual = 0.001151, No Iterations 4
time step continuity errors : sum local = 5.35327e-05, global = 3.6982e-18, cumulative = 6.55315e-19
Pressure gradient source: uncorrected Ubar = 1.00007, pressure gradient = 1.17743
smoothSolver:  Solving for omega, Initial residual = 0.000133363, Final residual = 9.87707e-06, No Iterations 6
smoothSolver:  Solving for k, Initial residual = 0.00995587, Final residual = 0.000691323, No Iterations 6
ExecutionTime = 0.087076 s  ClockTime = 0 s

Time = 28s

smoothSolver:  Solving for Ux, Initial residual = 0.00975649, Final residual = 0.000752719, No Iterations 5
smoothSolver:  Solving for Uy, Initial residual = 0.0304935, Final residual = 0.00206716, No Iterations 6
Pressure gradient source: uncorrected Ubar = 1.00106, pressure gradient = 0.874525
GAMG:  Solving for p, Initial residual = 0.0119157, Final residual = 0.000857837, No Iterations 9
time step continuity errors : sum local = 4.75304e-05, global = -1.57735e-17, cumulative = -1.51182e-17
Pressure gradient source: uncorrected Ubar = 1.00006, pressure gradient = 1.16081
smoothSolver:  Solving for omega, Initial residual = 0.000130051, Final residual = 9.59112e-06, No Iterations 6
smoothSolver:  Solving for k, Initial residual = 0.00947418, Final residual = 0.00066011, No Iterations 6
ExecutionTime = 0.089863 s  ClockTime = 0 s

Time = 29s

smoothSolver:  Solving for Ux, Initial residual = 0.0094683, Final residual = 0.000727309, No Iterations 5
smoothSolver:  Solving for Uy, Initial residual = 0.0293373, Final residual = 0.00197174, No Iterations 6
Pressure gradient source: uncorrected Ubar = 1.00093, pressure gradient = 0.885159
GAMG:  Solving for p, Initial residual = 0.00996277, Final residual = 0.000728112, No Iterations 11
time step continuity errors : sum local = 4.52172e-05, global = -8.81931e-18, cumulative = -2.39375e-17
Pressure gradient source: uncorrected Ubar = 1.00005, pressure gradient = 1.14749
smoothSolver:  Solving for omega, Initial residual = 0.000126812, Final residual = 9.48415e-06, No Iterations 6
smoothSolver:  Solving for k, Initial residual = 0.00897894, Final residual = 0.00062818, No Iterations 6
ExecutionTime = 0.092754 s  ClockTime = 0 s

Time = 30s

smoothSolver:  Solving for Ux, Initial residual = 0.00912436, Final residual = 0.000701777, No Iterations 5
smoothSolver:  Solving for Uy, Initial residual = 0.029215, Final residual = 0.0019226, No Iterations 6
Pressure gradient source: uncorrected Ubar = 1.00084, pressure gradient = 0.890528
GAMG:  Solving for p, Initial residual = 0.00915869, Final residual = 0.000749985, No Iterations 11
time step continuity errors : sum local = 4.63748e-05, global = 1.80706e-17, cumulative = -5.86686e-18
Pressure gradient source: uncorrected Ubar = 1.00004, pressure gradient = 1.13638
smoothSolver:  Solving for omega, Initial residual = 0.000123481, Final residual = 9.3467e-06, No Iterations 6
smoothSolver:  Solving for k, Initial residual = 0.00858183, Final residual = 0.00060524, No Iterations 6
ExecutionTime = 0.095648 s  ClockTime = 0 s

Time = 31s

smoothSolver:  Solving for Ux, Initial residual = 0.00880598, Final residual = 0.000678126, No Iterations 5
smoothSolver:  Solving for Uy, Initial residual = 0.0277389, Final residual = 0.00181462, No Iterations 6
Pressure gradient source: uncorrected Ubar = 1.00077, pressure gradient = 0.894499
GAMG:  Solving for p, Initial residual = 0.00817319, Final residual = 0.000657784, No Iterations 11
time step continuity errors : sum local = 3.98607e-05, global = -1.90447e-17, cumulative = -2.49115e-17
Pressure gradient source: uncorrected Ubar = 1.00003, pressure gradient = 1.12701
smoothSolver:  Solving for omega, Initial residual = 0.000120123, Final residual = 8.94917e-06, No Iterations 6
smoothSolver:  Solving for k, Initial residual = 0.00823514, Final residual = 0.000585379, No Iterations 6
ExecutionTime = 0.098526 s  ClockTime = 0 s

Time = 32s

smoothSolver:  Solving for Ux, Initial residual = 0.0085021, Final residual = 0.000657269, No Iterations 5
smoothSolver:  Solving for Uy, Initial residual = 0.0255457, Final residual = 0.00170068, No Iterations 6
Pressure gradient source: uncorrected Ubar = 1.00074, pressure gradient = 0.887415
GAMG:  Solving for p, Initial residual = 0.00793502, Final residual = 0.00070112, No Iterations 9
time step continuity errors : sum local = 3.93891e-05, global = -8.7634e-18, cumulative = -3.3675e-17
Pressure gradient source: uncorrected Ubar = 1.00003, pressure gradient = 1.11778
smoothSolver:  Solving for omega, Initial residual = 0.000117073, Final residual = 8.90961e-06, No Iterations 6
smoothSolver:  Solving for k, Initial residual = 0.00801552, Final residual = 0.000581019, No Iterations 6
ExecutionTime = 0.101624 s  ClockTime = 0 s

Time = 33s

smoothSolver:  Solving for Ux, Initial residual = 0.00822507, Final residual = 0.000638151, No Iterations 5
smoothSolver:  Solving for Uy, Initial residual = 0.0244029, Final residual = 0.00162863, No Iterations 6
Pressure gradient source: uncorrected Ubar = 1.0007, pressure gradient = 0.8835
GAMG:  Solving for p, Initial residual = 0.00640684, Final residual = 0.000529523, No Iterations 9
time step continuity errors : sum local = 2.76357e-05, global = -1.4713e-17, cumulative = -4.83879e-17
Pressure gradient source: uncorrected Ubar = 1.00003, pressure gradient = 1.10905
smoothSolver:  Solving for omega, Initial residual = 0.000114065, Final residual = 8.80085e-06, No Iterations 6
smoothSolver:  Solving for k, Initial residual = 0.00785404, Final residual = 0.000575241, No Iterations 6
ExecutionTime = 0.104661 s  ClockTime = 0 s

Time = 34s

smoothSolver:  Solving for Ux, Initial residual = 0.00797132, Final residual = 0.000620965, No Iterations 5
smoothSolver:  Solving for Uy, Initial residual = 0.0243075, Final residual = 0.0016457, No Iterations 6
Pressure gradient source: uncorrected Ubar = 1.00065, pressure gradient = 0.882411
GAMG:  Solving for p, Initial residual = 0.00614928, Final residual = 0.000579091, No Iterations 9
time step continuity errors : sum local = 2.4716e-05, global = 1.39394e-17, cumulative = -3.44485e-17
Pressure gradient source: uncorrected Ubar = 1.00002, pressure gradient = 1.10112
smoothSolver:  Solving for omega, Initial residual = 0.000110638, Final residual = 8.48391e-06, No Iterations 6
smoothSolver:  Solving for k, Initial residual = 0.00768158, Final residual = 0.000565698, No Iterations 6
ExecutionTime = 0.107599 s  ClockTime = 0 s

Time = 35s

smoothSolver:  Solving for Ux, Initial residual = 0.00773759, Final residual = 0.000605402, No Iterations 5
smoothSolver:  Solving for Uy, Initial residual = 0.0238496, Final residual = 0.00164172, No Iterations 6
Pressure gradient source: uncorrected Ubar = 1.00064, pressure gradient = 0.873797
GAMG:  Solving for p, Initial residual = 0.00628057, Final residual = 0.000613811, No Iterations 10
time step continuity errors : sum local = 2.55413e-05, global = -1.29622e-17, cumulative = -4.74107e-17
Pressure gradient source: uncorrected Ubar = 1.00002, pressure gradient = 1.09297
smoothSolver:  Solving for omega, Initial residual = 0.000107368, Final residual = 8.17628e-06, No Iterations 6
smoothSolver:  Solving for k, Initial residual = 0.00754706, Final residual = 0.000556862, No Iterations 6
ExecutionTime = 0.110649 s  ClockTime = 0 s

Time = 36s

smoothSolver:  Solving for Ux, Initial residual = 0.00752736, Final residual = 0.000591231, No Iterations 5
smoothSolver:  Solving for Uy, Initial residual = 0.0222228, Final residual = 0.00152103, No Iterations 6
Pressure gradient source: uncorrected Ubar = 1.00062, pressure gradient = 0.865486
GAMG:  Solving for p, Initial residual = 0.00509387, Final residual = 0.000481965, No Iterations 12
time step continuity errors : sum local = 2.1437e-05, global = 6.67461e-18, cumulative = -4.0736e-17
Pressure gradient source: uncorrected Ubar = 1.00002, pressure gradient = 1.08467
smoothSolver:  Solving for omega, Initial residual = 0.000104288, Final residual = 8.00204e-06, No Iterations 6
smoothSolver:  Solving for k, Initial residual = 0.00746131, Final residual = 0.000558603, No Iterations 6
ExecutionTime = 0.113657 s  ClockTime = 0 s

Time = 37s

smoothSolver:  Solving for Ux, Initial residual = 0.00733412, Final residual = 0.000578912, No Iterations 5
smoothSolver:  Solving for Uy, Initial residual = 0.0221291, Final residual = 0.00152013, No Iterations 6
Pressure gradient source: uncorrected Ubar = 1.00059, pressure gradient = 0.863598
GAMG:  Solving for p, Initial residual = 0.00483687, Final residual = 0.000453915, No Iterations 13
time step continuity errors : sum local = 1.98639e-05, global = 8.27932e-18, cumulative = -3.24567e-17
Pressure gradient source: uncorrected Ubar = 1.00002, pressure gradient = 1.07705
smoothSolver:  Solving for omega, Initial residual = 0.000101283, Final residual = 7.87105e-06, No Iterations 6
smoothSolver:  Solving for k, Initial residual = 0.00740693, Final residual = 0.000556993, No Iterations 6
ExecutionTime = 0.116664 s  ClockTime = 0 s

Time = 38s

smoothSolver:  Solving for Ux, Initial residual = 0.00715444, Final residual = 0.000567805, No Iterations 5
smoothSolver:  Solving for Uy, Initial residual = 0.0216666, Final residual = 0.00151311, No Iterations 6
Pressure gradient source: uncorrected Ubar = 1.00056, pressure gradient = 0.860977
GAMG:  Solving for p, Initial residual = 0.00489718, Final residual = 0.000449614, No Iterations 14
time step continuity errors : sum local = 1.9034e-05, global = 5.01444e-19, cumulative = -3.19553e-17
Pressure gradient source: uncorrected Ubar = 1.00002, pressure gradient = 1.06996
smoothSolver:  Solving for omega, Initial residual = 9.81512e-05, Final residual = 7.5525e-06, No Iterations 6
smoothSolver:  Solving for k, Initial residual = 0.00733296, Final residual = 0.000561795, No Iterations 6
ExecutionTime = 0.11972 s  ClockTime = 0 s

Time = 39s

smoothSolver:  Solving for Ux, Initial residual = 0.00698783, Final residual = 0.000557297, No Iterations 5
smoothSolver:  Solving for Uy, Initial residual = 0.0208497, Final residual = 0.00145687, No Iterations 6
Pressure gradient source: uncorrected Ubar = 1.00055, pressure gradient = 0.850707
GAMG:  Solving for p, Initial residual = 0.0046654, Final residual = 0.000409167, No Iterations 14
time step continuity errors : sum local = 1.65274e-05, global = 5.24822e-18, cumulative = -2.67071e-17
Pressure gradient source: uncorrected Ubar = 1.00002, pressure gradient = 1.0624
smoothSolver:  Solving for omega, Initial residual = 9.52959e-05, Final residual = 7.42649e-06, No Iterations 6
smoothSolver:  Solving for k, Initial residual = 0.00728904, Final residual = 0.000562118, No Iterations 6
ExecutionTime = 0.122807 s  ClockTime = 0 s

Time = 40s

smoothSolver:  Solving for Ux, Initial residual = 0.00682731, Final residual = 0.000547019, No Iterations 5
smoothSolver:  Solving for Uy, Initial residual = 0.020504, Final residual = 0.00144755, No Iterations 6
Pressure gradient source: uncorrected Ubar = 1.00053, pressure gradient = 0.848124
GAMG:  Solving for p, Initial residual = 0.00424245, Final residual = 0.00041871, No Iterations 14
time step continuity errors : sum local = 1.61202e-05, global = 7.08754e-18, cumulative = -1.96195e-17
Pressure gradient source: uncorrected Ubar = 1.00002, pressure gradient = 1.05538
smoothSolver:  Solving for omega, Initial residual = 9.24681e-05, Final residual = 7.15211e-06, No Iterations 6
smoothSolver:  Solving for k, Initial residual = 0.00722061, Final residual = 0.000558646, No Iterations 6
ExecutionTime = 0.125834 s  ClockTime = 0 s

Time = 41s

smoothSolver:  Solving for Ux, Initial residual = 0.00668436, Final residual = 0.000538394, No Iterations 5
smoothSolver:  Solving for Uy, Initial residual = 0.0206601, Final residual = 0.00147376, No Iterations 6
Pressure gradient source: uncorrected Ubar = 1.00051, pressure gradient = 0.844415
GAMG:  Solving for p, Initial residual = 0.00468133, Final residual = 0.000448344, No Iterations 13
time step continuity errors : sum local = 1.58811e-05, global = 3.43091e-18, cumulative = -1.61886e-17
Pressure gradient source: uncorrected Ubar = 1.00002, pressure gradient = 1.0487
smoothSolver:  Solving for omega, Initial residual = 8.97837e-05, Final residual = 7.01466e-06, No Iterations 6
smoothSolver:  Solving for k, Initial residual = 0.00714481, Final residual = 0.000552614, No Iterations 6
ExecutionTime = 0.128818 s  ClockTime = 0 s

Time = 42s

smoothSolver:  Solving for Ux, Initial residual = 0.00654874, Final residual = 0.000530404, No Iterations 5
smoothSolver:  Solving for Uy, Initial residual = 0.0196172, Final residual = 0.00139872, No Iterations 6
Pressure gradient source: uncorrected Ubar = 1.0005, pressure gradient = 0.837122
GAMG:  Solving for p, Initial residual = 0.00411794, Final residual = 0.00040868, No Iterations 15
time step continuity errors : sum local = 1.40985e-05, global = 9.04631e-18, cumulative = -7.1423e-18
Pressure gradient source: uncorrected Ubar = 1.00002, pressure gradient = 1.0419
smoothSolver:  Solving for omega, Initial residual = 8.71651e-05, Final residual = 6.83877e-06, No Iterations 6
smoothSolver:  Solving for k, Initial residual = 0.007093, Final residual = 0.000554315, No Iterations 6
ExecutionTime = 0.131921 s  ClockTime = 0 s

Time = 43s

smoothSolver:  Solving for Ux, Initial residual = 0.00641816, Final residual = 0.000522534, No Iterations 5
smoothSolver:  Solving for Uy, Initial residual = 0.0194195, Final residual = 0.00139721, No Iterations 6
Pressure gradient source: uncorrected Ubar = 1.00048, pressure gradient = 0.831719
GAMG:  Solving for p, Initial residual = 0.00376921, Final residual = 0.000315887, No Iterations 16
time step continuity errors : sum local = 1.10543e-05, global = 7.77915e-18, cumulative = 6.36846e-19
Pressure gradient source: uncorrected Ubar = 1.00002, pressure gradient = 1.03521
smoothSolver:  Solving for omega, Initial residual = 8.45933e-05, Final residual = 6.63825e-06, No Iterations 6
smoothSolver:  Solving for k, Initial residual = 0.00702916, Final residual = 0.000548553, No Iterations 6
ExecutionTime = 0.135044 s  ClockTime = 0 s

Time = 44s

smoothSolver:  Solving for Ux, Initial residual = 0.00629224, Final residual = 0.000514937, No Iterations 5
smoothSolver:  Solving for Uy, Initial residual = 0.0183303, Final residual = 0.001328, No Iterations 6
Pressure gradient source: uncorrected Ubar = 1.00047, pressure gradient = 0.826529
GAMG:  Solving for p, Initial residual = 0.00373989, Final residual = 0.000322799, No Iterations 16
time step continuity errors : sum local = 1.078e-05, global = 2.05444e-17, cumulative = 2.11812e-17
Pressure gradient source: uncorrected Ubar = 1.00001, pressure gradient = 1.02866
smoothSolver:  Solving for omega, Initial residual = 8.2149e-05, Final residual = 9.75366e-06, No Iterations 5
smoothSolver:  Solving for k, Initial residual = 0.00698981, Final residual = 0.000549246, No Iterations 6
ExecutionTime = 0.138155 s  ClockTime = 0 s

Time = 45s

smoothSolver:  Solving for Ux, Initial residual = 0.00618321, Final residual = 0.000508686, No Iterations 5
smoothSolver:  Solving for Uy, Initial residual = 0.0172435, Final residual = 0.00125645, No Iterations 6
Pressure gradient source: uncorrected Ubar = 1.00048, pressure gradient = 0.810981
GAMG:  Solving for p, Initial residual = 0.0037164, Final residual = 0.000352783, No Iterations 12
time step continuity errors : sum local = 1.08074e-05, global = -3.94294e-18, cumulative = 1.72383e-17
Pressure gradient source: uncorrected Ubar = 1.00002, pressure gradient = 1.02096
smoothSolver:  Solving for omega, Initial residual = 8.02286e-05, Final residual = 9.59461e-06, No Iterations 5
smoothSolver:  Solving for k, Initial residual = 0.00693608, Final residual = 0.000546948, No Iterations 6
ExecutionTime = 0.141086 s  ClockTime = 0 s

Time = 46s

smoothSolver:  Solving for Ux, Initial residual = 0.00607957, Final residual = 0.00050245, No Iterations 5
smoothSolver:  Solving for Uy, Initial residual = 0.0167463, Final residual = 0.00122466, No Iterations 6
Pressure gradient source: uncorrected Ubar = 1.00046, pressure gradient = 0.80564
GAMG:  Solving for p, Initial residual = 0.0034252, Final residual = 0.000341592, No Iterations 13
time step continuity errors : sum local = 9.94746e-06, global = 2.19674e-17, cumulative = 3.92056e-17
Pressure gradient source: uncorrected Ubar = 1.00002, pressure gradient = 1.01351
smoothSolver:  Solving for omega, Initial residual = 7.82635e-05, Final residual = 9.2588e-06, No Iterations 5
smoothSolver:  Solving for k, Initial residual = 0.00691919, Final residual = 0.000550878, No Iterations 6
ExecutionTime = 0.144066 s  ClockTime = 0 s

Time = 47s

smoothSolver:  Solving for Ux, Initial residual = 0.00597945, Final residual = 0.000496547, No Iterations 5
smoothSolver:  Solving for Uy, Initial residual = 0.0163205, Final residual = 0.00120497, No Iterations 6
Pressure gradient source: uncorrected Ubar = 1.00044, pressure gradient = 0.802785
GAMG:  Solving for p, Initial residual = 0.00327652, Final residual = 0.000287549, No Iterations 14
time step continuity errors : sum local = 8.48473e-06, global = -9.12424e-18, cumulative = 3.00814e-17
Pressure gradient source: uncorrected Ubar = 1.00001, pressure gradient = 1.00661
smoothSolver:  Solving for omega, Initial residual = 7.64519e-05, Final residual = 9.22407e-06, No Iterations 5
smoothSolver:  Solving for k, Initial residual = 0.00686871, Final residual = 0.000543996, No Iterations 6
ExecutionTime = 0.147084 s  ClockTime = 0 s

Time = 48s

smoothSolver:  Solving for Ux, Initial residual = 0.00588068, Final residual = 0.000490656, No Iterations 5
smoothSolver:  Solving for Uy, Initial residual = 0.0156697, Final residual = 0.00116164, No Iterations 6
Pressure gradient source: uncorrected Ubar = 1.00042, pressure gradient = 0.802161
GAMG:  Solving for p, Initial residual = 0.00302203, Final residual = 0.000288805, No Iterations 14
time step continuity errors : sum local = 8.28115e-06, global = 1.70584e-17, cumulative = 4.71398e-17
Pressure gradient source: uncorrected Ubar = 1.00001, pressure gradient = 1.00047
smoothSolver:  Solving for omega, Initial residual = 7.45257e-05, Final residual = 8.93411e-06, No Iterations 5
smoothSolver:  Solving for k, Initial residual = 0.00684495, Final residual = 0.000550671, No Iterations 6
ExecutionTime = 0.1501 s  ClockTime = 0 s

Time = 49s

smoothSolver:  Solving for Ux, Initial residual = 0.00578577, Final residual = 0.000485179, No Iterations 5
smoothSolver:  Solving for Uy, Initial residual = 0.0154557, Final residual = 0.00115341, No Iterations 6
Pressure gradient source: uncorrected Ubar = 1.00041, pressure gradient = 0.797316
GAMG:  Solving for p, Initial residual = 0.00291027, Final residual = 0.000251542, No Iterations 14
time step continuity errors : sum local = 7.05345e-06, global = -3.8703e-18, cumulative = 4.32695e-17
Pressure gradient source: uncorrected Ubar = 1.00001, pressure gradient = 0.994495
smoothSolver:  Solving for omega, Initial residual = 7.2699e-05, Final residual = 8.74511e-06, No Iterations 5
smoothSolver:  Solving for k, Initial residual = 0.00678341, Final residual = 0.000544468, No Iterations 6
ExecutionTime = 0.15313 s  ClockTime = 0 s

Time = 50s

smoothSolver:  Solving for Ux, Initial residual = 0.00569723, Final residual = 0.000480004, No Iterations 5
smoothSolver:  Solving for Uy, Initial residual = 0.0148622, Final residual = 0.00110772, No Iterations 6
Pressure gradient source: uncorrected Ubar = 1.00039, pressure gradient = 0.795678
GAMG:  Solving for p, Initial residual = 0.0031628, Final residual = 0.000301049, No Iterations 12
time step continuity errors : sum local = 7.88803e-06, global = 1.97024e-17, cumulative = 6.29719e-17
Pressure gradient source: uncorrected Ubar = 1.00001, pressure gradient = 0.989068
smoothSolver:  Solving for omega, Initial residual = 7.09531e-05, Final residual = 8.55117e-06, No Iterations 5
smoothSolver:  Solving for k, Initial residual = 0.00675427, Final residual = 0.000545404, No Iterations 6
ExecutionTime = 0.156077 s  ClockTime = 0 s

Time = 51s

smoothSolver:  Solving for Ux, Initial residual = 0.00561339, Final residual = 0.00047466, No Iterations 5
smoothSolver:  Solving for Uy, Initial residual = 0.0148448, Final residual = 0.00112881, No Iterations 6
Pressure gradient source: uncorrected Ubar = 1.00038, pressure gradient = 0.791861
GAMG:  Solving for p, Initial residual = 0.00303521, Final residual = 0.000270315, No Iterations 14
time step continuity errors : sum local = 7.19293e-06, global = -1.96825e-17, cumulative = 4.32894e-17
Pressure gradient source: uncorrected Ubar = 1.00001, pressure gradient = 0.983864
smoothSolver:  Solving for omega, Initial residual = 6.92641e-05, Final residual = 8.37805e-06, No Iterations 5
smoothSolver:  Solving for k, Initial residual = 0.00669685, Final residual = 0.000539089, No Iterations 6
ExecutionTime = 0.159098 s  ClockTime = 0 s

Time = 52s

smoothSolver:  Solving for Ux, Initial residual = 0.00553152, Final residual = 0.000469481, No Iterations 5
smoothSolver:  Solving for Uy, Initial residual = 0.0138338, Final residual = 0.00105467, No Iterations 6
Pressure gradient source: uncorrected Ubar = 1.00037, pressure gradient = 0.789132
GAMG:  Solving for p, Initial residual = 0.00285677, Final residual = 0.000274244, No Iterations 14
time step continuity errors : sum local = 7.1691e-06, global = 2.93116e-18, cumulative = 4.62206e-17
Pressure gradient source: uncorrected Ubar = 1.00001, pressure gradient = 0.978988
smoothSolver:  Solving for omega, Initial residual = 6.75712e-05, Final residual = 8.16971e-06, No Iterations 5
smoothSolver:  Solving for k, Initial residual = 0.0066688, Final residual = 0.00054104, No Iterations 6
ExecutionTime = 0.16212 s  ClockTime = 0 s

Time = 53s

smoothSolver:  Solving for Ux, Initial residual = 0.00544852, Final residual = 0.000464447, No Iterations 5
smoothSolver:  Solving for Uy, Initial residual = 0.0135747, Final residual = 0.00104214, No Iterations 6
Pressure gradient source: uncorrected Ubar = 1.00036, pressure gradient = 0.787361
GAMG:  Solving for p, Initial residual = 0.00268149, Final residual = 0.000253743, No Iterations 14
time step continuity errors : sum local = 6.64157e-06, global = -1.29511e-17, cumulative = 3.32694e-17
Pressure gradient source: uncorrected Ubar = 1.00001, pressure gradient = 0.97453
smoothSolver:  Solving for omega, Initial residual = 6.5951e-05, Final residual = 7.94744e-06, No Iterations 5
smoothSolver:  Solving for k, Initial residual = 0.00661401, Final residual = 0.000536268, No Iterations 6
ExecutionTime = 0.165153 s  ClockTime = 0 s

Time = 54s

smoothSolver:  Solving for Ux, Initial residual = 0.0053722, Final residual = 0.000459992, No Iterations 5
smoothSolver:  Solving for Uy, Initial residual = 0.0130538, Final residual = 0.00100398, No Iterations 6
Pressure gradient source: uncorrected Ubar = 1.00035, pressure gradient = 0.782889
GAMG:  Solving for p, Initial residual = 0.0024884, Final residual = 0.000240121, No Iterations 16
time step continuity errors : sum local = 6.24837e-06, global = -2.03453e-17, cumulative = 1.29241e-17
Pressure gradient source: uncorrected Ubar = 1.00001, pressure gradient = 0.970102
smoothSolver:  Solving for omega, Initial residual = 6.44744e-05, Final residual = 7.82611e-06, No Iterations 5
smoothSolver:  Solving for k, Initial residual = 0.00657895, Final residual = 0.000534818, No Iterations 6
ExecutionTime = 0.168271 s  ClockTime = 0 s

Time = 55s

smoothSolver:  Solving for Ux, Initial residual = 0.00529945, Final residual = 0.000455462, No Iterations 5
smoothSolver:  Solving for Uy, Initial residual = 0.0128904, Final residual = 0.000997853, No Iterations 6
Pressure gradient source: uncorrected Ubar = 1.00034, pressure gradient = 0.781833
GAMG:  Solving for p, Initial residual = 0.0027982, Final residual = 0.000248458, No Iterations 15
time step continuity errors : sum local = 6.42755e-06, global = -1.40608e-19, cumulative = 1.27835e-17
Pressure gradient source: uncorrected Ubar = 1.00001, pressure gradient = 0.966142
smoothSolver:  Solving for omega, Initial residual = 6.29362e-05, Final residual = 7.61938e-06, No Iterations 5
smoothSolver:  Solving for k, Initial residual = 0.00653466, Final residual = 0.000532215, No Iterations 6
ExecutionTime = 0.171347 s  ClockTime = 0 s

Time = 56s

smoothSolver:  Solving for Ux, Initial residual = 0.00522881, Final residual = 0.000450791, No Iterations 5
smoothSolver:  Solving for Uy, Initial residual = 0.0121509, Final residual = 0.000943727, No Iterations 6
Pressure gradient source: uncorrected Ubar = 1.00033, pressure gradient = 0.776222
GAMG:  Solving for p, Initial residual = 0.0027883, Final residual = 0.000241409, No Iterations 16
time step continuity errors : sum local = 6.02197e-06, global = -2.25459e-18, cumulative = 1.05289e-17
Pressure gradient source: uncorrected Ubar = 1.00001, pressure gradient = 0.96203
smoothSolver:  Solving for omega, Initial residual = 6.1515e-05, Final residual = 7.45294e-06, No Iterations 5
smoothSolver:  Solving for k, Initial residual = 0.00650803, Final residual = 0.000532594, No Iterations 6
ExecutionTime = 0.174458 s  ClockTime = 0 s

Time = 57s

smoothSolver:  Solving for Ux, Initial residual = 0.00515952, Final residual = 0.000446218, No Iterations 5
smoothSolver:  Solving for Uy, Initial residual = 0.0118597, Final residual = 0.000928967, No Iterations 6
Pressure gradient source: uncorrected Ubar = 1.00032, pressure gradient = 0.773424
GAMG:  Solving for p, Initial residual = 0.00249242, Final residual = 0.000246545, No Iterations 14
time step continuity errors : sum local = 5.86746e-06, global = 4.98373e-18, cumulative = 1.55127e-17
Pressure gradient source: uncorrected Ubar = 1.00001, pressure gradient = 0.958138
smoothSolver:  Solving for omega, Initial residual = 6.01153e-05, Final residual = 7.28865e-06, No Iterations 5
smoothSolver:  Solving for k, Initial residual = 0.00645731, Final residual = 0.000528223, No Iterations 6
ExecutionTime = 0.177481 s  ClockTime = 0 s

Time = 58s

smoothSolver:  Solving for Ux, Initial residual = 0.00509005, Final residual = 0.000442149, No Iterations 5
smoothSolver:  Solving for Uy, Initial residual = 0.011148, Final residual = 0.000873527, No Iterations 6
Pressure gradient source: uncorrected Ubar = 1.00032, pressure gradient = 0.768275
GAMG:  Solving for p, Initial residual = 0.00239417, Final residual = 0.000230842, No Iterations 14
time step continuity errors : sum local = 5.38996e-06, global = 2.75265e-21, cumulative = 1.55154e-17
Pressure gradient source: uncorrected Ubar = 1.00001, pressure gradient = 0.954143
smoothSolver:  Solving for omega, Initial residual = 5.87843e-05, Final residual = 7.16465e-06, No Iterations 5
smoothSolver:  Solving for k, Initial residual = 0.00642872, Final residual = 0.000528859, No Iterations 6
ExecutionTime = 0.180506 s  ClockTime = 0 s

Time = 59s

smoothSolver:  Solving for Ux, Initial residual = 0.00502654, Final residual = 0.00043824, No Iterations 5
smoothSolver:  Solving for Uy, Initial residual = 0.0109123, Final residual = 0.000862391, No Iterations 6
Pressure gradient source: uncorrected Ubar = 1.00031, pressure gradient = 0.764727
GAMG:  Solving for p, Initial residual = 0.00229405, Final residual = 0.000221438, No Iterations 13
time step continuity errors : sum local = 5.11265e-06, global = 7.6324e-18, cumulative = 2.31478e-17
Pressure gradient source: uncorrected Ubar = 1.00001, pressure gradient = 0.950264
smoothSolver:  Solving for omega, Initial residual = 5.741e-05, Final residual = 6.9719e-06, No Iterations 5
smoothSolver:  Solving for k, Initial residual = 0.00639059, Final residual = 0.000525852, No Iterations 6
ExecutionTime = 0.183488 s  ClockTime = 0 s

Time = 60s

smoothSolver:  Solving for Ux, Initial residual = 0.00496487, Final residual = 0.000434171, No Iterations 5
smoothSolver:  Solving for Uy, Initial residual = 0.0104207, Final residual = 0.000806746, No Iterations 6
Pressure gradient source: uncorrected Ubar = 1.00031, pressure gradient = 0.758537
GAMG:  Solving for p, Initial residual = 0.00248326, Final residual = 0.000214796, No Iterations 13
time step continuity errors : sum local = 4.83265e-06, global = -1.15918e-17, cumulative = 1.1556e-17
Pressure gradient source: uncorrected Ubar = 1.00001, pressure gradient = 0.946166
smoothSolver:  Solving for omega, Initial residual = 5.61851e-05, Final residual = 6.86867e-06, No Iterations 5
smoothSolver:  Solving for k, Initial residual = 0.00635465, Final residual = 0.000524485, No Iterations 6
ExecutionTime = 0.186486 s  ClockTime = 0 s

Time = 61s

smoothSolver:  Solving for Ux, Initial residual = 0.00490522, Final residual = 0.000430096, No Iterations 5
smoothSolver:  Solving for Uy, Initial residual = 0.0104762, Final residual = 0.00082091, No Iterations 6
Pressure gradient source: uncorrected Ubar = 1.00031, pressure gradient = 0.75223
GAMG:  Solving for p, Initial residual = 0.00241203, Final residual = 0.000216734, No Iterations 13
time step continuity errors : sum local = 4.70847e-06, global = 3.41866e-18, cumulative = 1.49747e-17
Pressure gradient source: uncorrected Ubar = 1.00001, pressure gradient = 0.941857
smoothSolver:  Solving for omega, Initial residual = 5.49256e-05, Final residual = 6.69448e-06, No Iterations 5
smoothSolver:  Solving for k, Initial residual = 0.00631491, Final residual = 0.000521688, No Iterations 6
ExecutionTime = 0.189513 s  ClockTime = 0 s

Time = 62s

smoothSolver:  Solving for Ux, Initial residual = 0.00484588, Final residual = 0.000426201, No Iterations 5
smoothSolver:  Solving for Uy, Initial residual = 0.0102341, Final residual = 0.000789417, No Iterations 6
Pressure gradient source: uncorrected Ubar = 1.00031, pressure gradient = 0.745501
GAMG:  Solving for p, Initial residual = 0.00242184, Final residual = 0.000207986, No Iterations 13
time step continuity errors : sum local = 4.46805e-06, global = 5.34954e-18, cumulative = 2.03243e-17
Pressure gradient source: uncorrected Ubar = 1.00001, pressure gradient = 0.937309
smoothSolver:  Solving for omega, Initial residual = 5.3717e-05, Final residual = 9.92859e-06, No Iterations 4
smoothSolver:  Solving for k, Initial residual = 0.00628872, Final residual = 0.000520908, No Iterations 6
ExecutionTime = 0.192498 s  ClockTime = 0 s

Time = 63s

smoothSolver:  Solving for Ux, Initial residual = 0.00479141, Final residual = 0.000423304, No Iterations 5
smoothSolver:  Solving for Uy, Initial residual = 0.0101025, Final residual = 0.000776386, No Iterations 6
Pressure gradient source: uncorrected Ubar = 1.00032, pressure gradient = 0.731557
GAMG:  Solving for p, Initial residual = 0.00234205, Final residual = 0.000201498, No Iterations 15
time step continuity errors : sum local = 4.29241e-06, global = -1.17401e-17, cumulative = 8.58417e-18
Pressure gradient source: uncorrected Ubar = 1.00001, pressure gradient = 0.931626
smoothSolver:  Solving for omega, Initial residual = 5.28658e-05, Final residual = 9.76182e-06, No Iterations 4
smoothSolver:  Solving for k, Initial residual = 0.00628444, Final residual = 0.000521462, No Iterations 6
ExecutionTime = 0.195573 s  ClockTime = 0 s

Time = 64s

smoothSolver:  Solving for Ux, Initial residual = 0.00474121, Final residual = 0.000420386, No Iterations 5
smoothSolver:  Solving for Uy, Initial residual = 0.00986646, Final residual = 0.000744323, No Iterations 6
Pressure gradient source: uncorrected Ubar = 1.00031, pressure gradient = 0.723128
GAMG:  Solving for p, Initial residual = 0.00195538, Final residual = 0.000180885, No Iterations 15
time step continuity errors : sum local = 3.81799e-06, global = -1.01869e-17, cumulative = -1.60278e-18
Pressure gradient source: uncorrected Ubar = 1.00001, pressure gradient = 0.925667
smoothSolver:  Solving for omega, Initial residual = 5.19929e-05, Final residual = 9.62938e-06, No Iterations 4
smoothSolver:  Solving for k, Initial residual = 0.00625692, Final residual = 0.000520143, No Iterations 6
ExecutionTime = 0.198623 s  ClockTime = 0 s

Time = 65s

smoothSolver:  Solving for Ux, Initial residual = 0.0046923, Final residual = 0.000417169, No Iterations 5
smoothSolver:  Solving for Uy, Initial residual = 0.00978965, Final residual = 0.00073801, No Iterations 6
Pressure gradient source: uncorrected Ubar = 1.00031, pressure gradient = 0.713221
GAMG:  Solving for p, Initial residual = 0.00244112, Final residual = 0.000233943, No Iterations 13
time step continuity errors : sum local = 4.71281e-06, global = -6.97749e-18, cumulative = -8.58026e-18
Pressure gradient source: uncorrected Ubar = 1.00001, pressure gradient = 0.919279
smoothSolver:  Solving for omega, Initial residual = 5.11158e-05, Final residual = 9.44909e-06, No Iterations 4
smoothSolver:  Solving for k, Initial residual = 0.0062402, Final residual = 0.000519704, No Iterations 6
ExecutionTime = 0.201608 s  ClockTime = 0 s

Time = 66s

smoothSolver:  Solving for Ux, Initial residual = 0.00464422, Final residual = 0.000414076, No Iterations 5
smoothSolver:  Solving for Uy, Initial residual = 0.00966309, Final residual = 0.000725873, No Iterations 6
Pressure gradient source: uncorrected Ubar = 1.00031, pressure gradient = 0.702838
GAMG:  Solving for p, Initial residual = 0.00211644, Final residual = 0.00020509, No Iterations 15
time step continuity errors : sum local = 4.19984e-06, global = -1.39123e-17, cumulative = -2.24926e-17
Pressure gradient source: uncorrected Ubar = 1.00001, pressure gradient = 0.912452
smoothSolver:  Solving for omega, Initial residual = 5.0266e-05, Final residual = 9.31554e-06, No Iterations 4
smoothSolver:  Solving for k, Initial residual = 0.00621744, Final residual = 0.000517775, No Iterations 6
ExecutionTime = 0.20469 s  ClockTime = 0 s

Time = 67s

smoothSolver:  Solving for Ux, Initial residual = 0.0045958, Final residual = 0.000411267, No Iterations 5
smoothSolver:  Solving for Uy, Initial residual = 0.00982369, Final residual = 0.000740424, No Iterations 6
Pressure gradient source: uncorrected Ubar = 1.00031, pressure gradient = 0.693569
GAMG:  Solving for p, Initial residual = 0.00195964, Final residual = 0.000182266, No Iterations 17
time step continuity errors : sum local = 3.73748e-06, global = -3.31502e-18, cumulative = -2.58076e-17
Pressure gradient source: uncorrected Ubar = 1.00001, pressure gradient = 0.905377
smoothSolver:  Solving for omega, Initial residual = 4.94695e-05, Final residual = 9.16395e-06, No Iterations 4
smoothSolver:  Solving for k, Initial residual = 0.00620076, Final residual = 0.000517778, No Iterations 6
ExecutionTime = 0.207852 s  ClockTime = 0 s

Time = 68s

smoothSolver:  Solving for Ux, Initial residual = 0.00454985, Final residual = 0.000408837, No Iterations 5
smoothSolver:  Solving for Uy, Initial residual = 0.00957937, Final residual = 0.000720361, No Iterations 6
Pressure gradient source: uncorrected Ubar = 1.00031, pressure gradient = 0.682195
GAMG:  Solving for p, Initial residual = 0.00199841, Final residual = 0.000174326, No Iterations 15
time step continuity errors : sum local = 3.48171e-06, global = -1.10746e-17, cumulative = -3.68822e-17
Pressure gradient source: uncorrected Ubar = 1.00001, pressure gradient = 0.897813
smoothSolver:  Solving for omega, Initial residual = 4.87245e-05, Final residual = 9.0619e-06, No Iterations 4
smoothSolver:  Solving for k, Initial residual = 0.00617874, Final residual = 0.000517285, No Iterations 6
ExecutionTime = 0.211004 s  ClockTime = 0 s

Time = 69s

smoothSolver:  Solving for Ux, Initial residual = 0.00450791, Final residual = 0.000406282, No Iterations 5
smoothSolver:  Solving for Uy, Initial residual = 0.00947549, Final residual = 0.000720318, No Iterations 6
Pressure gradient source: uncorrected Ubar = 1.00031, pressure gradient = 0.669942
GAMG:  Solving for p, Initial residual = 0.00226327, Final residual = 0.00020584, No Iterations 15
time step continuity errors : sum local = 3.97157e-06, global = 5.50709e-18, cumulative = -3.13751e-17
Pressure gradient source: uncorrected Ubar = 1.00001, pressure gradient = 0.889717
smoothSolver:  Solving for omega, Initial residual = 4.80776e-05, Final residual = 8.94361e-06, No Iterations 4
smoothSolver:  Solving for k, Initial residual = 0.00615935, Final residual = 0.000515743, No Iterations 6
ExecutionTime = 0.214078 s  ClockTime = 0 s

Time = 70s

smoothSolver:  Solving for Ux, Initial residual = 0.00446678, Final residual = 0.000403642, No Iterations 5
smoothSolver:  Solving for Uy, Initial residual = 0.00936767, Final residual = 0.000711761, No Iterations 6
Pressure gradient source: uncorrected Ubar = 1.00031, pressure gradient = 0.657054
GAMG:  Solving for p, Initial residual = 0.00233105, Final residual = 0.000230091, No Iterations 13
time step continuity errors : sum local = 4.31319e-06, global = -8.9867e-18, cumulative = -4.03618e-17
Pressure gradient source: uncorrected Ubar = 1.00001, pressure gradient = 0.88107
smoothSolver:  Solving for omega, Initial residual = 4.75303e-05, Final residual = 8.85665e-06, No Iterations 4
smoothSolver:  Solving for k, Initial residual = 0.0061327, Final residual = 0.000513239, No Iterations 6
ExecutionTime = 0.217074 s  ClockTime = 0 s

Time = 71s

smoothSolver:  Solving for Ux, Initial residual = 0.00442531, Final residual = 0.00040109, No Iterations 5
smoothSolver:  Solving for Uy, Initial residual = 0.00954018, Final residual = 0.000725935, No Iterations 6
Pressure gradient source: uncorrected Ubar = 1.00031, pressure gradient = 0.645881
GAMG:  Solving for p, Initial residual = 0.00194895, Final residual = 0.000191222, No Iterations 17
time step continuity errors : sum local = 3.63623e-06, global = -5.32572e-19, cumulative = -4.08944e-17
Pressure gradient source: uncorrected Ubar = 1.00001, pressure gradient = 0.872152
smoothSolver:  Solving for omega, Initial residual = 4.69822e-05, Final residual = 8.74701e-06, No Iterations 4
smoothSolver:  Solving for k, Initial residual = 0.00612272, Final residual = 0.000515189, No Iterations 6
ExecutionTime = 0.220234 s  ClockTime = 0 s

Time = 72s

smoothSolver:  Solving for Ux, Initial residual = 0.00438324, Final residual = 0.000398759, No Iterations 5
smoothSolver:  Solving for Uy, Initial residual = 0.00940228, Final residual = 0.000730081, No Iterations 6
Pressure gradient source: uncorrected Ubar = 1.00031, pressure gradient = 0.631686
GAMG:  Solving for p, Initial residual = 0.00214474, Final residual = 0.000193335, No Iterations 13
time step continuity errors : sum local = 3.55543e-06, global = 7.17988e-18, cumulative = -3.37145e-17
Pressure gradient source: uncorrected Ubar = 1.00001, pressure gradient = 0.86261
smoothSolver:  Solving for omega, Initial residual = 4.64352e-05, Final residual = 8.65443e-06, No Iterations 4
smoothSolver:  Solving for k, Initial residual = 0.00609265, Final residual = 0.000512696, No Iterations 6
ExecutionTime = 0.223217 s  ClockTime = 0 s

Time = 73s

smoothSolver:  Solving for Ux, Initial residual = 0.00434469, Final residual = 0.00039673, No Iterations 5
smoothSolver:  Solving for Uy, Initial residual = 0.00933586, Final residual = 0.000728764, No Iterations 6
Pressure gradient source: uncorrected Ubar = 1.00031, pressure gradient = 0.619454
GAMG:  Solving for p, Initial residual = 0.00224208, Final residual = 0.000211502, No Iterations 13
time step continuity errors : sum local = 3.7356e-06, global = -4.16804e-18, cumulative = -3.78826e-17
Pressure gradient source: uncorrected Ubar = 1.00001, pressure gradient = 0.852769
smoothSolver:  Solving for omega, Initial residual = 4.58572e-05, Final residual = 8.53004e-06, No Iterations 4
smoothSolver:  Solving for k, Initial residual = 0.00607043, Final residual = 0.000510801, No Iterations 6
ExecutionTime = 0.226182 s  ClockTime = 0 s

Time = 74s

smoothSolver:  Solving for Ux, Initial residual = 0.00430952, Final residual = 0.000394499, No Iterations 5
smoothSolver:  Solving for Uy, Initial residual = 0.00931784, Final residual = 0.000731817, No Iterations 6
Pressure gradient source: uncorrected Ubar = 1.00031, pressure gradient = 0.603159
GAMG:  Solving for p, Initial residual = 0.00198135, Final residual = 0.000176429, No Iterations 15
time step continuity errors : sum local = 3.11168e-06, global = -1.01714e-17, cumulative = -4.8054e-17
Pressure gradient source: uncorrected Ubar = 1.00001, pressure gradient = 0.842147
smoothSolver:  Solving for omega, Initial residual = 4.52703e-05, Final residual = 8.45654e-06, No Iterations 4
smoothSolver:  Solving for k, Initial residual = 0.00604461, Final residual = 0.00050811, No Iterations 6
ExecutionTime = 0.229226 s  ClockTime = 0 s

Time = 75s

smoothSolver:  Solving for Ux, Initial residual = 0.00427491, Final residual = 0.000392434, No Iterations 5
smoothSolver:  Solving for Uy, Initial residual = 0.0095589, Final residual = 0.00074875, No Iterations 6
Pressure gradient source: uncorrected Ubar = 1.00031, pressure gradient = 0.589753
GAMG:  Solving for p, Initial residual = 0.0017791, Final residual = 0.000172443, No Iterations 15
time step continuity errors : sum local = 3.0112e-06, global = -2.47532e-17, cumulative = -7.28071e-17
Pressure gradient source: uncorrected Ubar = 1.00001, pressure gradient = 0.83121
smoothSolver:  Solving for omega, Initial residual = 4.46372e-05, Final residual = 8.30235e-06, No Iterations 4
smoothSolver:  Solving for k, Initial residual = 0.00602128, Final residual = 0.000508665, No Iterations 6
ExecutionTime = 0.232285 s  ClockTime = 0 s

Time = 76s

smoothSolver:  Solving for Ux, Initial residual = 0.00423952, Final residual = 0.000390445, No Iterations 5
smoothSolver:  Solving for Uy, Initial residual = 0.00953818, Final residual = 0.000754249, No Iterations 6
Pressure gradient source: uncorrected Ubar = 1.00031, pressure gradient = 0.576089
GAMG:  Solving for p, Initial residual = 0.00200746, Final residual = 0.000185414, No Iterations 15
time step continuity errors : sum local = 3.23908e-06, global = 5.72806e-18, cumulative = -6.70791e-17
Pressure gradient source: uncorrected Ubar = 1.00001, pressure gradient = 0.819954
smoothSolver:  Solving for omega, Initial residual = 4.40519e-05, Final residual = 8.20965e-06, No Iterations 4
smoothSolver:  Solving for k, Initial residual = 0.00599953, Final residual = 0.000507029, No Iterations 6
ExecutionTime = 0.235346 s  ClockTime = 0 s

Time = 77s

smoothSolver:  Solving for Ux, Initial residual = 0.00420432, Final residual = 0.000388495, No Iterations 5
smoothSolver:  Solving for Uy, Initial residual = 0.00956243, Final residual = 0.00075749, No Iterations 6
Pressure gradient source: uncorrected Ubar = 1.00031, pressure gradient = 0.5613
GAMG:  Solving for p, Initial residual = 0.00219847, Final residual = 0.000195375, No Iterations 15
time step continuity errors : sum local = 3.38278e-06, global = 4.70066e-18, cumulative = -6.23784e-17
Pressure gradient source: uncorrected Ubar = 1.00001, pressure gradient = 0.808271
smoothSolver:  Solving for omega, Initial residual = 4.34639e-05, Final residual = 8.09769e-06, No Iterations 4
smoothSolver:  Solving for k, Initial residual = 0.00597097, Final residual = 0.000504782, No Iterations 6
ExecutionTime = 0.238405 s  ClockTime = 0 s

Time = 78s

smoothSolver:  Solving for Ux, Initial residual = 0.00417239, Final residual = 0.000386808, No Iterations 5
smoothSolver:  Solving for Uy, Initial residual = 0.00931994, Final residual = 0.000744857, No Iterations 6
Pressure gradient source: uncorrected Ubar = 1.00031, pressure gradient = 0.545532
GAMG:  Solving for p, Initial residual = 0.00218577, Final residual = 0.000202208, No Iterations 13
time step continuity errors : sum local = 3.34584e-06, global = 3.13222e-18, cumulative = -5.92462e-17
Pressure gradient source: uncorrected Ubar = 1.00001, pressure gradient = 0.796088
smoothSolver:  Solving for omega, Initial residual = 4.28722e-05, Final residual = 7.99804e-06, No Iterations 4
smoothSolver:  Solving for k, Initial residual = 0.00594453, Final residual = 0.000502853, No Iterations 6
ExecutionTime = 0.241371 s  ClockTime = 0 s

Time = 79s

smoothSolver:  Solving for Ux, Initial residual = 0.00414295, Final residual = 0.000385088, No Iterations 5
smoothSolver:  Solving for Uy, Initial residual = 0.0094996, Final residual = 0.000756506, No Iterations 6
Pressure gradient source: uncorrected Ubar = 1.00031, pressure gradient = 0.52921
GAMG:  Solving for p, Initial residual = 0.00168848, Final residual = 0.000147196, No Iterations 17
time step continuity errors : sum local = 2.47193e-06, global = -8.74774e-19, cumulative = -6.01209e-17
Pressure gradient source: uncorrected Ubar = 1.00001, pressure gradient = 0.783398
smoothSolver:  Solving for omega, Initial residual = 4.22653e-05, Final residual = 7.84922e-06, No Iterations 4
smoothSolver:  Solving for k, Initial residual = 0.00591737, Final residual = 0.000501602, No Iterations 6
ExecutionTime = 0.244519 s  ClockTime = 0 s

Time = 80s

smoothSolver:  Solving for Ux, Initial residual = 0.00411346, Final residual = 0.000383485, No Iterations 5
smoothSolver:  Solving for Uy, Initial residual = 0.0094677, Final residual = 0.000760926, No Iterations 6
Pressure gradient source: uncorrected Ubar = 1.0003, pressure gradient = 0.514874
GAMG:  Solving for p, Initial residual = 0.00161422, Final residual = 0.000154358, No Iterations 13
time step continuity errors : sum local = 2.48763e-06, global = -1.93495e-17, cumulative = -7.94705e-17
Pressure gradient source: uncorrected Ubar = 1.00001, pressure gradient = 0.770515
smoothSolver:  Solving for omega, Initial residual = 4.17129e-05, Final residual = 7.77891e-06, No Iterations 4
smoothSolver:  Solving for k, Initial residual = 0.00589256, Final residual = 0.000500033, No Iterations 6
ExecutionTime = 0.247605 s  ClockTime = 0 s

Time = 81s

smoothSolver:  Solving for Ux, Initial residual = 0.00408377, Final residual = 0.00038194, No Iterations 5
smoothSolver:  Solving for Uy, Initial residual = 0.00959665, Final residual = 0.000767361, No Iterations 6
Pressure gradient source: uncorrected Ubar = 1.0003, pressure gradient = 0.499909
GAMG:  Solving for p, Initial residual = 0.00200415, Final residual = 0.000194519, No Iterations 11
time step continuity errors : sum local = 3.05649e-06, global = 4.52845e-18, cumulative = -7.4942e-17
Pressure gradient source: uncorrected Ubar = 1.00001, pressure gradient = 0.757378
smoothSolver:  Solving for omega, Initial residual = 4.1163e-05, Final residual = 7.64235e-06, No Iterations 4
smoothSolver:  Solving for k, Initial residual = 0.00586277, Final residual = 0.000497401, No Iterations 6
ExecutionTime = 0.250489 s  ClockTime = 0 s

Time = 82s

smoothSolver:  Solving for Ux, Initial residual = 0.00405442, Final residual = 0.000380479, No Iterations 5
smoothSolver:  Solving for Uy, Initial residual = 0.00946778, Final residual = 0.000764564, No Iterations 6
Pressure gradient source: uncorrected Ubar = 1.0003, pressure gradient = 0.484068
GAMG:  Solving for p, Initial residual = 0.00221838, Final residual = 0.000210618, No Iterations 13
time step continuity errors : sum local = 3.41565e-06, global = -7.67962e-18, cumulative = -8.26216e-17
Pressure gradient source: uncorrected Ubar = 1.00001, pressure gradient = 0.7439
smoothSolver:  Solving for omega, Initial residual = 4.06313e-05, Final residual = 7.54442e-06, No Iterations 4
smoothSolver:  Solving for k, Initial residual = 0.00582636, Final residual = 0.000494136, No Iterations 6
ExecutionTime = 0.253452 s  ClockTime = 0 s

Time = 83s

smoothSolver:  Solving for Ux, Initial residual = 0.00402817, Final residual = 0.000378932, No Iterations 5
smoothSolver:  Solving for Uy, Initial residual = 0.00942184, Final residual = 0.000758849, No Iterations 6
Pressure gradient source: uncorrected Ubar = 1.0003, pressure gradient = 0.468833
GAMG:  Solving for p, Initial residual = 0.0020128, Final residual = 0.000185051, No Iterations 11
time step continuity errors : sum local = 2.87927e-06, global = -5.12137e-18, cumulative = -8.7743e-17
Pressure gradient source: uncorrected Ubar = 1.00001, pressure gradient = 0.730207
smoothSolver:  Solving for omega, Initial residual = 4.01223e-05, Final residual = 7.45568e-06, No Iterations 4
smoothSolver:  Solving for k, Initial residual = 0.00580634, Final residual = 0.000494255, No Iterations 6
ExecutionTime = 0.256317 s  ClockTime = 0 s

Time = 84s

smoothSolver:  Solving for Ux, Initial residual = 0.00400484, Final residual = 0.000377731, No Iterations 5
smoothSolver:  Solving for Uy, Initial residual = 0.00944822, Final residual = 0.000768045, No Iterations 6
Pressure gradient source: uncorrected Ubar = 1.0003, pressure gradient = 0.451005
GAMG:  Solving for p, Initial residual = 0.00159564, Final residual = 0.000152269, No Iterations 11
time step continuity errors : sum local = 2.25382e-06, global = 1.21251e-17, cumulative = -7.56179e-17
Pressure gradient source: uncorrected Ubar = 1.00002, pressure gradient = 0.715985
smoothSolver:  Solving for omega, Initial residual = 3.96167e-05, Final residual = 7.35749e-06, No Iterations 4
smoothSolver:  Solving for k, Initial residual = 0.00577504, Final residual = 0.000491647, No Iterations 6
ExecutionTime = 0.259207 s  ClockTime = 0 s

Time = 85s

smoothSolver:  Solving for Ux, Initial residual = 0.00398018, Final residual = 0.000376563, No Iterations 5
smoothSolver:  Solving for Uy, Initial residual = 0.0096656, Final residual = 0.00078169, No Iterations 6
Pressure gradient source: uncorrected Ubar = 1.00029, pressure gradient = 0.438385
GAMG:  Solving for p, Initial residual = 0.00201025, Final residual = 0.000193731, No Iterations 11
time step continuity errors : sum local = 2.91319e-06, global = -8.35619e-18, cumulative = -8.39741e-17
Pressure gradient source: uncorrected Ubar = 1.00001, pressure gradient = 0.701979
smoothSolver:  Solving for omega, Initial residual = 3.91503e-05, Final residual = 7.24444e-06, No Iterations 4
smoothSolver:  Solving for k, Initial residual = 0.00574415, Final residual = 0.00048868, No Iterations 6
ExecutionTime = 0.262073 s  ClockTime = 0 s

Time = 86s

smoothSolver:  Solving for Ux, Initial residual = 0.0039561, Final residual = 0.000375469, No Iterations 5
smoothSolver:  Solving for Uy, Initial residual = 0.00946167, Final residual = 0.000771318, No Iterations 6
Pressure gradient source: uncorrected Ubar = 1.00029, pressure gradient = 0.422317
GAMG:  Solving for p, Initial residual = 0.00167305, Final residual = 0.000167286, No Iterations 13
time step continuity errors : sum local = 2.56811e-06, global = 1.18377e-17, cumulative = -7.21364e-17
Pressure gradient source: uncorrected Ubar = 1.00001, pressure gradient = 0.687705
smoothSolver:  Solving for omega, Initial residual = 3.87143e-05, Final residual = 7.17559e-06, No Iterations 4
smoothSolver:  Solving for k, Initial residual = 0.00571212, Final residual = 0.000486427, No Iterations 6
ExecutionTime = 0.265055 s  ClockTime = 0 s

Time = 87s

smoothSolver:  Solving for Ux, Initial residual = 0.00393227, Final residual = 0.000374334, No Iterations 5
smoothSolver:  Solving for Uy, Initial residual = 0.00942164, Final residual = 0.00076462, No Iterations 6
Pressure gradient source: uncorrected Ubar = 1.00029, pressure gradient = 0.406792
GAMG:  Solving for p, Initial residual = 0.00172101, Final residual = 0.00015569, No Iterations 15
time step continuity errors : sum local = 2.37238e-06, global = 1.08372e-17, cumulative = -6.12993e-17
Pressure gradient source: uncorrected Ubar = 1.00001, pressure gradient = 0.673269
smoothSolver:  Solving for omega, Initial residual = 3.82776e-05, Final residual = 7.0693e-06, No Iterations 4
smoothSolver:  Solving for k, Initial residual = 0.00568244, Final residual = 0.000484975, No Iterations 6
ExecutionTime = 0.268103 s  ClockTime = 0 s

Time = 88s

smoothSolver:  Solving for Ux, Initial residual = 0.00390919, Final residual = 0.000373045, No Iterations 5
smoothSolver:  Solving for Uy, Initial residual = 0.00932345, Final residual = 0.000762114, No Iterations 6
Pressure gradient source: uncorrected Ubar = 1.00028, pressure gradient = 0.390492
GAMG:  Solving for p, Initial residual = 0.00192829, Final residual = 0.000172794, No Iterations 13
time step continuity errors : sum local = 2.59532e-06, global = -6.04358e-18, cumulative = -6.73429e-17
Pressure gradient source: uncorrected Ubar = 1.00001, pressure gradient = 0.658589
smoothSolver:  Solving for omega, Initial residual = 3.78633e-05, Final residual = 7.0173e-06, No Iterations 4
smoothSolver:  Solving for k, Initial residual = 0.00565313, Final residual = 0.00048257, No Iterations 6
ExecutionTime = 0.27107 s  ClockTime = 0 s

Time = 89s

smoothSolver:  Solving for Ux, Initial residual = 0.00388951, Final residual = 0.000372011, No Iterations 5
smoothSolver:  Solving for Uy, Initial residual = 0.00927158, Final residual = 0.000757433, No Iterations 6
Pressure gradient source: uncorrected Ubar = 1.00028, pressure gradient = 0.376992
[...]
smoothSolver:  Solving for omega, Initial residual = 1.98662e-06, Final residual = 1.98662e-06, No Iterations 0
smoothSolver:  Solving for k, Initial residual = 1.02951e-05, Final residual = 6.49335e-06, No Iterations 1
ExecutionTime = 9.5663 s  ClockTime = 9 s

Time = 3598s

smoothSolver:  Solving for Ux, Initial residual = 3.42413e-06, Final residual = 3.42413e-06, No Iterations 0
smoothSolver:  Solving for Uy, Initial residual = 0.000520021, Final residual = 3.0316e-05, No Iterations 4
Pressure gradient source: uncorrected Ubar = 1, pressure gradient = 0.00618127
GAMG:  Solving for p, Initial residual = 0.000261446, Final residual = 2.48528e-05, No Iterations 3
time step continuity errors : sum local = 7.04803e-11, global = 9.091e-19, cumulative = -1.74512e-16
Pressure gradient source: uncorrected Ubar = 1, pressure gradient = 0.00618129
smoothSolver:  Solving for omega, Initial residual = 1.98663e-06, Final residual = 1.98663e-06, No Iterations 0
smoothSolver:  Solving for k, Initial residual = 1.02691e-05, Final residual = 6.48383e-06, No Iterations 1
ExecutionTime = 9.56865 s  ClockTime = 9 s

Time = 3599s

smoothSolver:  Solving for Ux, Initial residual = 3.42893e-06, Final residual = 3.42893e-06, No Iterations 0
smoothSolver:  Solving for Uy, Initial residual = 0.000581184, Final residual = 4.78307e-05, No Iterations 3
Pressure gradient source: uncorrected Ubar = 1, pressure gradient = 0.00618129
GAMG:  Solving for p, Initial residual = 0.000364038, Final residual = 2.44466e-05, No Iterations 3
time step continuity errors : sum local = 6.8429e-11, global = 3.84419e-18, cumulative = -1.70668e-16
Pressure gradient source: uncorrected Ubar = 1, pressure gradient = 0.00618131
smoothSolver:  Solving for omega, Initial residual = 1.98663e-06, Final residual = 1.98663e-06, No Iterations 0
smoothSolver:  Solving for k, Initial residual = 1.02423e-05, Final residual = 6.46782e-06, No Iterations 1
ExecutionTime = 9.571 s  ClockTime = 9 s

Time = 3600s

smoothSolver:  Solving for Ux, Initial residual = 3.43371e-06, Final residual = 3.43371e-06, No Iterations 0
smoothSolver:  Solving for Uy, Initial residual = 0.000485376, Final residual = 3.14043e-05, No Iterations 4
Pressure gradient source: uncorrected Ubar = 1, pressure gradient = 0.00618131
GAMG:  Solving for p, Initial residual = 0.000210332, Final residual = 1.31826e-05, No Iterations 4
time step continuity errors : sum local = 3.69991e-11, global = -8.9582e-18, cumulative = -1.79626e-16
Pressure gradient source: uncorrected Ubar = 1, pressure gradient = 0.00618133
smoothSolver:  Solving for omega, Initial residual = 1.98664e-06, Final residual = 1.98664e-06, No Iterations 0
smoothSolver:  Solving for k, Initial residual = 1.02102e-05, Final residual = 6.43666e-06, No Iterations 1
ExecutionTime = 9.5734 s  ClockTime = 9 s

Time = 3601s

smoothSolver:  Solving for Ux, Initial residual = 3.43852e-06, Final residual = 3.43852e-06, No Iterations 0
smoothSolver:  Solving for Uy, Initial residual = 0.00050532, Final residual = 3.30912e-05, No Iterations 4
Pressure gradient source: uncorrected Ubar = 1, pressure gradient = 0.00618133
GAMG:  Solving for p, Initial residual = 0.000225373, Final residual = 9.49441e-06, No Iterations 4
time step continuity errors : sum local = 2.68775e-11, global = 5.67877e-18, cumulative = -1.73947e-16
Pressure gradient source: uncorrected Ubar = 1, pressure gradient = 0.00618136
smoothSolver:  Solving for omega, Initial residual = 1.98664e-06, Final residual = 1.98664e-06, No Iterations 0
smoothSolver:  Solving for k, Initial residual = 1.01881e-05, Final residual = 6.43035e-06, No Iterations 1
ExecutionTime = 9.57583 s  ClockTime = 9 s

Time = 3602s

smoothSolver:  Solving for Ux, Initial residual = 3.44323e-06, Final residual = 3.44323e-06, No Iterations 0
smoothSolver:  Solving for Uy, Initial residual = 0.000526745, Final residual = 3.31989e-05, No Iterations 4
Pressure gradient source: uncorrected Ubar = 1, pressure gradient = 0.00618136
GAMG:  Solving for p, Initial residual = 0.000245369, Final residual = 1.35205e-05, No Iterations 4
time step continuity errors : sum local = 3.75911e-11, global = 6.65682e-18, cumulative = -1.6729e-16
Pressure gradient source: uncorrected Ubar = 1, pressure gradient = 0.00618138
smoothSolver:  Solving for omega, Initial residual = 1.98665e-06, Final residual = 1.98665e-06, No Iterations 0
smoothSolver:  Solving for k, Initial residual = 1.01572e-05, Final residual = 6.41681e-06, No Iterations 1
ExecutionTime = 9.57823 s  ClockTime = 9 s

Time = 3603s

smoothSolver:  Solving for Ux, Initial residual = 3.44794e-06, Final residual = 3.44794e-06, No Iterations 0
smoothSolver:  Solving for Uy, Initial residual = 0.000515807, Final residual = 4.70365e-05, No Iterations 3
Pressure gradient source: uncorrected Ubar = 1, pressure gradient = 0.00618138
GAMG:  Solving for p, Initial residual = 0.000294826, Final residual = 2.15728e-05, No Iterations 3
time step continuity errors : sum local = 5.97697e-11, global = 2.96015e-18, cumulative = -1.6433e-16
Pressure gradient source: uncorrected Ubar = 1, pressure gradient = 0.0061814
smoothSolver:  Solving for omega, Initial residual = 1.98666e-06, Final residual = 1.98666e-06, No Iterations 0
smoothSolver:  Solving for k, Initial residual = 1.01315e-05, Final residual = 6.39663e-06, No Iterations 1
ExecutionTime = 9.58058 s  ClockTime = 9 s

Time = 3604s

smoothSolver:  Solving for Ux, Initial residual = 3.45257e-06, Final residual = 3.45257e-06, No Iterations 0
smoothSolver:  Solving for Uy, Initial residual = 0.000471135, Final residual = 2.80007e-05, No Iterations 4
Pressure gradient source: uncorrected Ubar = 1, pressure gradient = 0.0061814
GAMG:  Solving for p, Initial residual = 0.000197436, Final residual = 1.55245e-05, No Iterations 3
time step continuity errors : sum local = 4.35609e-11, global = -7.29891e-18, cumulative = -1.71629e-16
Pressure gradient source: uncorrected Ubar = 1, pressure gradient = 0.00618142
smoothSolver:  Solving for omega, Initial residual = 1.98666e-06, Final residual = 1.98666e-06, No Iterations 0
smoothSolver:  Solving for k, Initial residual = 1.01021e-05, Final residual = 6.37294e-06, No Iterations 1
ExecutionTime = 9.58293 s  ClockTime = 9 s

Time = 3605s

smoothSolver:  Solving for Ux, Initial residual = 3.45725e-06, Final residual = 3.45725e-06, No Iterations 0
smoothSolver:  Solving for Uy, Initial residual = 0.000513915, Final residual = 2.64458e-05, No Iterations 4
Pressure gradient source: uncorrected Ubar = 1, pressure gradient = 0.00618142
GAMG:  Solving for p, Initial residual = 0.000298254, Final residual = 1.75167e-05, No Iterations 3
time step continuity errors : sum local = 4.93753e-11, global = -4.66548e-18, cumulative = -1.76295e-16
Pressure gradient source: uncorrected Ubar = 1, pressure gradient = 0.00618144
smoothSolver:  Solving for omega, Initial residual = 1.98667e-06, Final residual = 1.98667e-06, No Iterations 0
smoothSolver:  Solving for k, Initial residual = 1.00729e-05, Final residual = 6.35998e-06, No Iterations 1
ExecutionTime = 9.58531 s  ClockTime = 9 s

Time = 3606s

smoothSolver:  Solving for Ux, Initial residual = 3.46183e-06, Final residual = 3.46183e-06, No Iterations 0
smoothSolver:  Solving for Uy, Initial residual = 0.000497734, Final residual = 3.19124e-05, No Iterations 4
Pressure gradient source: uncorrected Ubar = 1, pressure gradient = 0.00618144
GAMG:  Solving for p, Initial residual = 0.000233763, Final residual = 2.18138e-05, No Iterations 3
time step continuity errors : sum local = 6.05894e-11, global = -7.31085e-18, cumulative = -1.83606e-16
Pressure gradient source: uncorrected Ubar = 1, pressure gradient = 0.00618147
smoothSolver:  Solving for omega, Initial residual = 1.98668e-06, Final residual = 1.98668e-06, No Iterations 0
smoothSolver:  Solving for k, Initial residual = 1.00432e-05, Final residual = 6.32951e-06, No Iterations 1
ExecutionTime = 9.58767 s  ClockTime = 9 s

Time = 3607s

smoothSolver:  Solving for Ux, Initial residual = 3.46645e-06, Final residual = 3.46645e-06, No Iterations 0
smoothSolver:  Solving for Uy, Initial residual = 0.000496644, Final residual = 3.25334e-05, No Iterations 4
Pressure gradient source: uncorrected Ubar = 1, pressure gradient = 0.00618147
GAMG:  Solving for p, Initial residual = 0.000238596, Final residual = 1.37247e-05, No Iterations 3
time step continuity errors : sum local = 3.8463e-11, global = -4.42637e-18, cumulative = -1.88032e-16
Pressure gradient source: uncorrected Ubar = 1, pressure gradient = 0.00618149
smoothSolver:  Solving for omega, Initial residual = 1.98668e-06, Final residual = 1.98668e-06, No Iterations 0
smoothSolver:  Solving for k, Initial residual = 1.00247e-05, Final residual = 6.34577e-06, No Iterations 1
ExecutionTime = 9.59003 s  ClockTime = 9 s

Time = 3608s

smoothSolver:  Solving for Ux, Initial residual = 3.47097e-06, Final residual = 3.47097e-06, No Iterations 0
smoothSolver:  Solving for Uy, Initial residual = 0.000497081, Final residual = 2.82277e-05, No Iterations 4
Pressure gradient source: uncorrected Ubar = 1, pressure gradient = 0.00618149
GAMG:  Solving for p, Initial residual = 0.000198059, Final residual = 6.07597e-06, No Iterations 4
time step continuity errors : sum local = 1.82885e-11, global = -3.45776e-18, cumulative = -1.9149e-16
Pressure gradient source: uncorrected Ubar = 1, pressure gradient = 0.00618151
smoothSolver:  Solving for omega, Initial residual = 1.98669e-06, Final residual = 1.98669e-06, No Iterations 0
smoothSolver:  Solving for k, Initial residual = 9.98087e-06, Final residual = 9.98087e-06, No Iterations 0
ExecutionTime = 9.59242 s  ClockTime = 9 s

Time = 3609s

smoothSolver:  Solving for Ux, Initial residual = 3.46837e-06, Final residual = 3.46837e-06, No Iterations 0
smoothSolver:  Solving for Uy, Initial residual = 0.00028555, Final residual = 1.60485e-05, No Iterations 4
Pressure gradient source: uncorrected Ubar = 1, pressure gradient = 0.00618151
GAMG:  Solving for p, Initial residual = 0.000143789, Final residual = 1.26959e-05, No Iterations 3
time step continuity errors : sum local = 3.67145e-11, global = -2.91841e-18, cumulative = -1.94408e-16
Pressure gradient source: uncorrected Ubar = 1, pressure gradient = 0.00618151
smoothSolver:  Solving for omega, Initial residual = 1.9867e-06, Final residual = 1.9867e-06, No Iterations 0
smoothSolver:  Solving for k, Initial residual = 9.95736e-06, Final residual = 9.95736e-06, No Iterations 0
ExecutionTime = 9.59476 s  ClockTime = 9 s

Time = 3610s

smoothSolver:  Solving for Ux, Initial residual = 3.46572e-06, Final residual = 3.46572e-06, No Iterations 0
smoothSolver:  Solving for Uy, Initial residual = 0.000224793, Final residual = 1.35968e-05, No Iterations 4
Pressure gradient source: uncorrected Ubar = 1, pressure gradient = 0.00618151
GAMG:  Solving for p, Initial residual = 0.000112054, Final residual = 9.82044e-06, No Iterations 3
time step continuity errors : sum local = 2.8747e-11, global = -1.02604e-18, cumulative = -1.95434e-16
Pressure gradient source: uncorrected Ubar = 1, pressure gradient = 0.00618151
smoothSolver:  Solving for omega, Initial residual = 1.9867e-06, Final residual = 1.9867e-06, No Iterations 0
smoothSolver:  Solving for k, Initial residual = 9.93388e-06, Final residual = 9.93388e-06, No Iterations 0
ExecutionTime = 9.59712 s  ClockTime = 9 s

Time = 3611s

smoothSolver:  Solving for Ux, Initial residual = 3.46307e-06, Final residual = 3.46307e-06, No Iterations 0
smoothSolver:  Solving for Uy, Initial residual = 0.000191623, Final residual = 1.22589e-05, No Iterations 4
Pressure gradient source: uncorrected Ubar = 1, pressure gradient = 0.00618151
GAMG:  Solving for p, Initial residual = 9.34559e-05, Final residual = 7.76538e-06, No Iterations 3
time step continuity errors : sum local = 2.28894e-11, global = 7.77103e-18, cumulative = -1.87663e-16
Pressure gradient source: uncorrected Ubar = 1, pressure gradient = 0.00618151
smoothSolver:  Solving for omega, Initial residual = 1.98671e-06, Final residual = 1.98671e-06, No Iterations 0
smoothSolver:  Solving for k, Initial residual = 9.91042e-06, Final residual = 9.91042e-06, No Iterations 0
ExecutionTime = 9.59947 s  ClockTime = 9 s

Time = 3612s

smoothSolver:  Solving for Ux, Initial residual = 3.46042e-06, Final residual = 3.46042e-06, No Iterations 0
smoothSolver:  Solving for Uy, Initial residual = 0.000170452, Final residual = 1.21409e-05, No Iterations 4
Pressure gradient source: uncorrected Ubar = 1, pressure gradient = 0.00618151
GAMG:  Solving for p, Initial residual = 8.0234e-05, Final residual = 6.88608e-06, No Iterations 3
time step continuity errors : sum local = 2.01642e-11, global = -8.93932e-18, cumulative = -1.96602e-16
Pressure gradient source: uncorrected Ubar = 1, pressure gradient = 0.00618151
smoothSolver:  Solving for omega, Initial residual = 1.98672e-06, Final residual = 1.98672e-06, No Iterations 0
smoothSolver:  Solving for k, Initial residual = 9.88698e-06, Final residual = 9.88698e-06, No Iterations 0
ExecutionTime = 9.60184 s  ClockTime = 9 s

Time = 3613s

smoothSolver:  Solving for Ux, Initial residual = 3.45777e-06, Final residual = 3.45777e-06, No Iterations 0
smoothSolver:  Solving for Uy, Initial residual = 0.000155565, Final residual = 1.23117e-05, No Iterations 4
Pressure gradient source: uncorrected Ubar = 1, pressure gradient = 0.00618151
GAMG:  Solving for p, Initial residual = 7.0178e-05, Final residual = 6.85867e-06, No Iterations 3
time step continuity errors : sum local = 1.97882e-11, global = -8.03807e-18, cumulative = -2.0464e-16
Pressure gradient source: uncorrected Ubar = 1, pressure gradient = 0.0061815
smoothSolver:  Solving for omega, Initial residual = 1.98672e-06, Final residual = 1.98672e-06, No Iterations 0
smoothSolver:  Solving for k, Initial residual = 9.86357e-06, Final residual = 9.86357e-06, No Iterations 0
ExecutionTime = 9.60419 s  ClockTime = 9 s

Time = 3614s

smoothSolver:  Solving for Ux, Initial residual = 3.45511e-06, Final residual = 3.45511e-06, No Iterations 0
smoothSolver:  Solving for Uy, Initial residual = 0.000142635, Final residual = 1.22162e-05, No Iterations 4
Pressure gradient source: uncorrected Ubar = 1, pressure gradient = 0.0061815
GAMG:  Solving for p, Initial residual = 6.14433e-05, Final residual = 4.0856e-06, No Iterations 4
time step continuity errors : sum local = 1.21046e-11, global = 6.27548e-18, cumulative = -1.98365e-16
Pressure gradient source: uncorrected Ubar = 1, pressure gradient = 0.0061815
smoothSolver:  Solving for omega, Initial residual = 1.98673e-06, Final residual = 1.98673e-06, No Iterations 0
smoothSolver:  Solving for k, Initial residual = 9.84017e-06, Final residual = 9.84017e-06, No Iterations 0
ExecutionTime = 9.60661 s  ClockTime = 9 s

Time = 3615s

smoothSolver:  Solving for Ux, Initial residual = 3.45246e-06, Final residual = 3.45246e-06, No Iterations 0
smoothSolver:  Solving for Uy, Initial residual = 0.000132762, Final residual = 1.1911e-05, No Iterations 4
Pressure gradient source: uncorrected Ubar = 1, pressure gradient = 0.0061815
GAMG:  Solving for p, Initial residual = 5.26414e-05, Final residual = 5.08507e-06, No Iterations 4
time step continuity errors : sum local = 1.49391e-11, global = 1.13918e-18, cumulative = -1.97226e-16
Pressure gradient source: uncorrected Ubar = 1, pressure gradient = 0.0061815
smoothSolver:  Solving for omega, Initial residual = 1.98674e-06, Final residual = 1.98674e-06, No Iterations 0
smoothSolver:  Solving for k, Initial residual = 9.8168e-06, Final residual = 9.8168e-06, No Iterations 0
ExecutionTime = 9.60899 s  ClockTime = 9 s

Time = 3616s

smoothSolver:  Solving for Ux, Initial residual = 3.4498e-06, Final residual = 3.4498e-06, No Iterations 0
smoothSolver:  Solving for Uy, Initial residual = 0.000121772, Final residual = 1.1265e-05, No Iterations 4
Pressure gradient source: uncorrected Ubar = 1, pressure gradient = 0.0061815
GAMG:  Solving for p, Initial residual = 4.6196e-05, Final residual = 3.97069e-06, No Iterations 6
time step continuity errors : sum local = 1.2029e-11, global = 6.95431e-18, cumulative = -1.90272e-16
Pressure gradient source: uncorrected Ubar = 1, pressure gradient = 0.0061815
smoothSolver:  Solving for omega, Initial residual = 1.98674e-06, Final residual = 1.98674e-06, No Iterations 0
smoothSolver:  Solving for k, Initial residual = 9.79344e-06, Final residual = 9.79344e-06, No Iterations 0
ExecutionTime = 9.6115 s  ClockTime = 9 s

Time = 3617s

smoothSolver:  Solving for Ux, Initial residual = 3.44715e-06, Final residual = 3.44715e-06, No Iterations 0
smoothSolver:  Solving for Uy, Initial residual = 0.000114897, Final residual = 1.09143e-05, No Iterations 4
Pressure gradient source: uncorrected Ubar = 1, pressure gradient = 0.0061815
GAMG:  Solving for p, Initial residual = 3.97468e-05, Final residual = 3.95232e-06, No Iterations 6
time step continuity errors : sum local = 1.20065e-11, global = -1.86776e-18, cumulative = -1.92139e-16
Pressure gradient source: uncorrected Ubar = 1, pressure gradient = 0.0061815
smoothSolver:  Solving for omega, Initial residual = 1.98675e-06, Final residual = 1.98675e-06, No Iterations 0
smoothSolver:  Solving for k, Initial residual = 9.77011e-06, Final residual = 9.77011e-06, No Iterations 0
ExecutionTime = 9.61398 s  ClockTime = 9 s

Time = 3618s

smoothSolver:  Solving for Ux, Initial residual = 3.44449e-06, Final residual = 3.44449e-06, No Iterations 0
smoothSolver:  Solving for Uy, Initial residual = 0.000108807, Final residual = 1.06571e-05, No Iterations 4
Pressure gradient source: uncorrected Ubar = 1, pressure gradient = 0.0061815
GAMG:  Solving for p, Initial residual = 3.48496e-05, Final residual = 3.33939e-06, No Iterations 7
time step continuity errors : sum local = 1.02783e-11, global = -1.30398e-18, cumulative = -1.93443e-16
Pressure gradient source: uncorrected Ubar = 1, pressure gradient = 0.0061815
smoothSolver:  Solving for omega, Initial residual = 1.98676e-06, Final residual = 1.98676e-06, No Iterations 0
smoothSolver:  Solving for k, Initial residual = 9.7468e-06, Final residual = 9.7468e-06, No Iterations 0
ExecutionTime = 9.61653 s  ClockTime = 9 s

Time = 3619s

smoothSolver:  Solving for Ux, Initial residual = 3.44182e-06, Final residual = 3.44182e-06, No Iterations 0
smoothSolver:  Solving for Uy, Initial residual = 0.000104045, Final residual = 6.35696e-06, No Iterations 5
Pressure gradient source: uncorrected Ubar = 1, pressure gradient = 0.0061815
GAMG:  Solving for p, Initial residual = 3.10875e-05, Final residual = 3.04541e-06, No Iterations 8
time step continuity errors : sum local = 9.31754e-12, global = 2.22938e-18, cumulative = -1.91214e-16
Pressure gradient source: uncorrected Ubar = 1, pressure gradient = 0.0061815
smoothSolver:  Solving for omega, Initial residual = 1.98676e-06, Final residual = 1.98676e-06, No Iterations 0
smoothSolver:  Solving for k, Initial residual = 9.72351e-06, Final residual = 9.72351e-06, No Iterations 0
ExecutionTime = 9.61917 s  ClockTime = 9 s

Time = 3620s

smoothSolver:  Solving for Ux, Initial residual = 3.43916e-06, Final residual = 3.43916e-06, No Iterations 0
smoothSolver:  Solving for Uy, Initial residual = 9.8734e-05, Final residual = 6.14374e-06, No Iterations 5
Pressure gradient source: uncorrected Ubar = 1, pressure gradient = 0.0061815
GAMG:  Solving for p, Initial residual = 2.77471e-05, Final residual = 2.50382e-06, No Iterations 9
time step continuity errors : sum local = 7.71248e-12, global = -6.31493e-18, cumulative = -1.97529e-16
Pressure gradient source: uncorrected Ubar = 1, pressure gradient = 0.0061815
smoothSolver:  Solving for omega, Initial residual = 1.98677e-06, Final residual = 1.98677e-06, No Iterations 0
smoothSolver:  Solving for k, Initial residual = 9.70024e-06, Final residual = 9.70024e-06, No Iterations 0
ExecutionTime = 9.6218 s  ClockTime = 9 s


SIMPLE solution converged in 3620 iterations

End

