/*---------------------------------------------------------------------------*\
  =========                 |
  \\      /  F ield         | OpenFOAM: The Open Source CFD Toolbox
   \\    /   O peration     | Website:  https://openfoam.org
    \\  /    A nd           | Version:  10
     \\/     M anipulation  |
\*---------------------------------------------------------------------------*/
Build  : 10-e450dce21ea5
Exec   : blockMesh
Date   : Jan 16 2023
Time   : 11:42:17
Host   : "w530-R9YK46P"
PID    : 13744
I/O    : uncollated
Case   : /home/jdmezazeron/gitDanielMezaZ/turbulenceVisualized/Data/SimulationFiles/E4_Re225
nProcs : 1
sigFpe : Enabling floating point exception trapping (FOAM_SIGFPE).
fileModificationChecking : Monitoring run-time modified files using timeStampMaster (fileModificationSkew 10)
allowSystemOperations : Allowing user-supplied system call operations

// * * * * * * * * * * * * * * * * * * * * * * * * * * * * * * * * * * * * * //
Create time

Reading "blockMeshDict"

Creating block mesh from
    "system/blockMeshDict"
Creating block edges
No non-planar block faces defined
Creating topology blocks
Creating topology patches

Creating block mesh topology

Check topology

	Basic statistics
		Number of internal faces : 0
		Number of boundary faces : 6
		Number of defined boundary faces : 6
		Number of undefined boundary faces : 0
	Checking patch -> block consistency

Creating block offsets
Creating merge list .

Creating polyMesh from blockMesh
Creating patches
Creating cells
Creating points with scale 1
    Block 0 cell size :
        i : 0.5
        j : 0.00921276 .. 0.036851
        k : 2

Detected cyclic patches; ordering boundary faces

Writing polyMesh
----------------
Mesh Information
----------------
  boundingBox: (-1 0 -1) (1 1 1)
  nPoints: 510
  nCells: 200
  nFaces: 854
  nInternalFaces: 346
----------------
Patches
----------------
  patch 0 (start: 346 size: 50) name: inlet
  patch 1 (start: 396 size: 50) name: outlet
  patch 2 (start: 446 size: 4) name: fixedWalls-bottom
  patch 3 (start: 450 size: 4) name: fixedWalls-top
  patch 4 (start: 454 size: 400) name: frontAndBack

End

/*---------------------------------------------------------------------------*\
  =========                 |
  \\      /  F ield         | OpenFOAM: The Open Source CFD Toolbox
   \\    /   O peration     | Website:  https://openfoam.org
    \\  /    A nd           | Version:  10
     \\/     M anipulation  |
\*---------------------------------------------------------------------------*/
Build  : 10-e450dce21ea5
Exec   : simpleFoam
Date   : Jan 16 2023
Time   : 11:42:17
Host   : "w530-R9YK46P"
PID    : 13745
I/O    : uncollated
Case   : /home/jdmezazeron/gitDanielMezaZ/turbulenceVisualized/Data/SimulationFiles/E4_Re225
nProcs : 1
sigFpe : Enabling floating point exception trapping (FOAM_SIGFPE).
fileModificationChecking : Monitoring run-time modified files using timeStampMaster (fileModificationSkew 10)
allowSystemOperations : Allowing user-supplied system call operations

// * * * * * * * * * * * * * * * * * * * * * * * * * * * * * * * * * * * * * //
Create time

Create mesh for time = 0


SIMPLE: Convergence criteria found
        U: tolerance 0.01
        p: tolerance 0.01
        omega: tolerance 0.0001

Reading field p

Reading field U

Reading/calculating face flux field phi

Selecting viscosity model Newtonian
Selecting turbulence model type RAS
Selecting RAS turbulence model kOmegaSST
Selecting patchDistMethod meshWave
RAS
{
    RASModel        kOmegaSST;
    turbulence      on;
    printCoeffs     on;
    alphaK1         0.85;
    alphaK2         1;
    alphaOmega1     0.5;
    alphaOmega2     0.856;
    gamma1          0.555556;
    gamma2          0.44;
    beta1           0.075;
    beta2           0.0828;
    betaStar        0.09;
    a1              0.31;
    b1              1;
    c1              10;
    F3              false;
}

No MRF models present

--> FOAM Warning : Creating fvModels from "system/fvOptions" rather than constant/fvModels
No fvModels present
--> FOAM Warning : Creating fvConstraints from "system/fvOptions"

Selecting finite volume constraint type meanVelocityForce
    Name: momentumSource
    - selecting all cells
    - selected 200 cell(s) with volume 4
    Initial pressure gradient = 0


Starting time loop

turbulenceFields stressComponents: storing fields:
    R

Time = 1s

smoothSolver:  Solving for Ux, Initial residual = 0, Final residual = 0, No Iterations 0
smoothSolver:  Solving for Uy, Initial residual = 0, Final residual = 0, No Iterations 0
Pressure gradient source: uncorrected Ubar = 0, pressure gradient = 34.6183
GAMG:  Solving for p, Initial residual = 0.99999, Final residual = 0.0480944, No Iterations 3
time step continuity errors : sum local = 7.95095e-17, global = 4.22103e-18, cumulative = 4.22103e-18
Pressure gradient source: uncorrected Ubar = 0.869361, pressure gradient = 4.5225
smoothSolver:  Solving for omega, Initial residual = 0.0179341, Final residual = 0.00146706, No Iterations 2
smoothSolver:  Solving for k, Initial residual = 1, Final residual = 0.0328962, No Iterations 1
ExecutionTime = 0.013172 s  ClockTime = 0 s

Time = 2s

smoothSolver:  Solving for Ux, Initial residual = 0.387087, Final residual = 0.0320798, No Iterations 6
smoothSolver:  Solving for Uy, Initial residual = 1, Final residual = 0.077049, No Iterations 2
Pressure gradient source: uncorrected Ubar = 1.89572, pressure gradient = -30.5971
GAMG:  Solving for p, Initial residual = 1, Final residual = 0.0990853, No Iterations 6
time step continuity errors : sum local = 0.00072305, global = -2.06989e-17, cumulative = -1.64779e-17
Pressure gradient source: uncorrected Ubar = 1.12238, pressure gradient = -0.275864
smoothSolver:  Solving for omega, Initial residual = 0.169306, Final residual = 0.000632291, No Iterations 1
smoothSolver:  Solving for k, Initial residual = 0.117843, Final residual = 0.00619722, No Iterations 3
ExecutionTime = 0.015505 s  ClockTime = 0 s

Time = 3s

smoothSolver:  Solving for Ux, Initial residual = 0.0536208, Final residual = 0.00510607, No Iterations 5
smoothSolver:  Solving for Uy, Initial residual = 0.310828, Final residual = 0.0255247, No Iterations 4
Pressure gradient source: uncorrected Ubar = 0.923678, pressure gradient = 2.76725
GAMG:  Solving for p, Initial residual = 0.196646, Final residual = 0.0180496, No Iterations 5
time step continuity errors : sum local = 0.000268304, global = 7.09475e-18, cumulative = -9.38316e-18
Pressure gradient source: uncorrected Ubar = 0.988996, pressure gradient = 0.162884
smoothSolver:  Solving for omega, Initial residual = 0.00892997, Final residual = 0.000178438, No Iterations 1
smoothSolver:  Solving for k, Initial residual = 0.0454694, Final residual = 0.0025687, No Iterations 4
ExecutionTime = 0.017612 s  ClockTime = 0 s

Time = 4s

smoothSolver:  Solving for Ux, Initial residual = 0.0241297, Final residual = 0.00165061, No Iterations 5
smoothSolver:  Solving for Uy, Initial residual = 0.151142, Final residual = 0.00909534, No Iterations 4
Pressure gradient source: uncorrected Ubar = 1.01179, pressure gradient = -0.298919
GAMG:  Solving for p, Initial residual = 0.165799, Final residual = 0.0135924, No Iterations 6
time step continuity errors : sum local = 0.000179255, global = 3.91774e-18, cumulative = -5.46542e-18
Pressure gradient source: uncorrected Ubar = 1.00164, pressure gradient = 0.0987095
smoothSolver:  Solving for omega, Initial residual = 0.00851022, Final residual = 0.000139333, No Iterations 1
smoothSolver:  Solving for k, Initial residual = 0.0318732, Final residual = 0.0026274, No Iterations 4
ExecutionTime = 0.019726 s  ClockTime = 0 s

Time = 5s

smoothSolver:  Solving for Ux, Initial residual = 0.0166085, Final residual = 0.00111452, No Iterations 5
smoothSolver:  Solving for Uy, Initial residual = 0.397153, Final residual = 0.0383523, No Iterations 4
Pressure gradient source: uncorrected Ubar = 1.00275, pressure gradient = -0.00886888
GAMG:  Solving for p, Initial residual = 0.180914, Final residual = 0.0111234, No Iterations 8
time step continuity errors : sum local = 0.000104291, global = -8.02685e-18, cumulative = -1.34923e-17
Pressure gradient source: uncorrected Ubar = 1.00035, pressure gradient = 0.084968
smoothSolver:  Solving for omega, Initial residual = 0.0034249, Final residual = 8.76687e-05, No Iterations 1
smoothSolver:  Solving for k, Initial residual = 0.0259587, Final residual = 0.00235118, No Iterations 4
ExecutionTime = 0.021872 s  ClockTime = 0 s

Time = 6s

smoothSolver:  Solving for Ux, Initial residual = 0.0129733, Final residual = 0.00088489, No Iterations 5
smoothSolver:  Solving for Uy, Initial residual = 0.29662, Final residual = 0.0158717, No Iterations 4
Pressure gradient source: uncorrected Ubar = 1.00248, pressure gradient = -0.0116382
GAMG:  Solving for p, Initial residual = 0.212342, Final residual = 0.0130432, No Iterations 8
time step continuity errors : sum local = 6.94669e-05, global = -1.19495e-18, cumulative = -1.46872e-17
Pressure gradient source: uncorrected Ubar = 1.00032, pressure gradient = 0.0726073
smoothSolver:  Solving for omega, Initial residual = 0.00230162, Final residual = 5.65171e-05, No Iterations 1
smoothSolver:  Solving for k, Initial residual = 0.0231644, Final residual = 0.00228136, No Iterations 4
ExecutionTime = 0.024103 s  ClockTime = 0 s

Time = 7s

smoothSolver:  Solving for Ux, Initial residual = 0.0104199, Final residual = 0.000720603, No Iterations 5
smoothSolver:  Solving for Uy, Initial residual = 0.179895, Final residual = 0.0154957, No Iterations 3
Pressure gradient source: uncorrected Ubar = 1.0018, pressure gradient = 0.00290584
GAMG:  Solving for p, Initial residual = 0.21355, Final residual = 0.015841, No Iterations 7
time step continuity errors : sum local = 5.2273e-05, global = -1.09187e-17, cumulative = -2.56059e-17
Pressure gradient source: uncorrected Ubar = 1.00022, pressure gradient = 0.0639095
smoothSolver:  Solving for omega, Initial residual = 0.00116273, Final residual = 3.34355e-05, No Iterations 1
smoothSolver:  Solving for k, Initial residual = 0.0206142, Final residual = 0.00202723, No Iterations 4
ExecutionTime = 0.026266 s  ClockTime = 0 s

Time = 8s

smoothSolver:  Solving for Ux, Initial residual = 0.00862538, Final residual = 0.000602485, No Iterations 5
smoothSolver:  Solving for Uy, Initial residual = 0.158586, Final residual = 0.0156523, No Iterations 3
Pressure gradient source: uncorrected Ubar = 1.00138, pressure gradient = 0.0104896
GAMG:  Solving for p, Initial residual = 0.162894, Final residual = 0.0127091, No Iterations 7
time step continuity errors : sum local = 4.24357e-05, global = -1.19093e-18, cumulative = -2.67968e-17
Pressure gradient source: uncorrected Ubar = 1.00017, pressure gradient = 0.0573849
smoothSolver:  Solving for omega, Initial residual = 0.000688464, Final residual = 2.18317e-05, No Iterations 1
smoothSolver:  Solving for k, Initial residual = 0.0188641, Final residual = 0.00118193, No Iterations 5
ExecutionTime = 0.028316 s  ClockTime = 0 s

Time = 9s

smoothSolver:  Solving for Ux, Initial residual = 0.00725401, Final residual = 0.000511322, No Iterations 5
smoothSolver:  Solving for Uy, Initial residual = 0.177951, Final residual = 0.011423, No Iterations 4
Pressure gradient source: uncorrected Ubar = 1.0011, pressure gradient = 0.0150134
GAMG:  Solving for p, Initial residual = 0.136518, Final residual = 0.00893934, No Iterations 6
time step continuity errors : sum local = 2.85983e-05, global = -1.41825e-18, cumulative = -2.82151e-17
Pressure gradient source: uncorrected Ubar = 1.00013, pressure gradient = 0.0523043
smoothSolver:  Solving for omega, Initial residual = 0.000374986, Final residual = 1.36416e-05, No Iterations 1
smoothSolver:  Solving for k, Initial residual = 0.0172679, Final residual = 0.00116511, No Iterations 5
ExecutionTime = 0.030427 s  ClockTime = 0 s

Time = 10s

smoothSolver:  Solving for Ux, Initial residual = 0.00617943, Final residual = 0.000439943, No Iterations 5
smoothSolver:  Solving for Uy, Initial residual = 0.239726, Final residual = 0.0177129, No Iterations 4
Pressure gradient source: uncorrected Ubar = 1.00088, pressure gradient = 0.0185661
GAMG:  Solving for p, Initial residual = 0.118105, Final residual = 0.00999324, No Iterations 4
time step continuity errors : sum local = 2.74659e-05, global = 9.11905e-18, cumulative = -1.9096e-17
Pressure gradient source: uncorrected Ubar = 1.0001, pressure gradient = 0.0483394
smoothSolver:  Solving for omega, Initial residual = 0.000214599, Final residual = 9.47913e-06, No Iterations 1
smoothSolver:  Solving for k, Initial residual = 0.0159378, Final residual = 0.000990426, No Iterations 5
ExecutionTime = 0.032473 s  ClockTime = 0 s

Time = 11s

smoothSolver:  Solving for Ux, Initial residual = 0.00530985, Final residual = 0.000381115, No Iterations 5
smoothSolver:  Solving for Uy, Initial residual = 0.326352, Final residual = 0.0268074, No Iterations 4
Pressure gradient source: uncorrected Ubar = 1.00071, pressure gradient = 0.0209328
GAMG:  Solving for p, Initial residual = 0.110198, Final residual = 0.009485, No Iterations 3
time step continuity errors : sum local = 2.3391e-05, global = -7.92466e-19, cumulative = -1.98885e-17
Pressure gradient source: uncorrected Ubar = 1.00008, pressure gradient = 0.0451783
smoothSolver:  Solving for omega, Initial residual = 0.000120787, Final residual = 6.53152e-06, No Iterations 1
smoothSolver:  Solving for k, Initial residual = 0.0147125, Final residual = 0.000961172, No Iterations 5
ExecutionTime = 0.034595 s  ClockTime = 0 s

Time = 12s

smoothSolver:  Solving for Ux, Initial residual = 0.00460234, Final residual = 0.00033238, No Iterations 5
smoothSolver:  Solving for Uy, Initial residual = 0.369096, Final residual = 0.0291996, No Iterations 4
Pressure gradient source: uncorrected Ubar = 1.00059, pressure gradient = 0.0225712
GAMG:  Solving for p, Initial residual = 0.107228, Final residual = 0.00778682, No Iterations 5
time step continuity errors : sum local = 1.71319e-05, global = 3.64087e-18, cumulative = -1.62476e-17
Pressure gradient source: uncorrected Ubar = 1.00007, pressure gradient = 0.0426176
smoothSolver:  Solving for omega, Initial residual = 6.93716e-05, Final residual = 4.92347e-06, No Iterations 1
smoothSolver:  Solving for k, Initial residual = 0.0137228, Final residual = 0.00108361, No Iterations 5
ExecutionTime = 0.036694 s  ClockTime = 0 s

Time = 13s

smoothSolver:  Solving for Ux, Initial residual = 0.00402533, Final residual = 0.000291237, No Iterations 5
smoothSolver:  Solving for Uy, Initial residual = 0.351845, Final residual = 0.0281706, No Iterations 4
Pressure gradient source: uncorrected Ubar = 1.0005, pressure gradient = 0.0235187
GAMG:  Solving for p, Initial residual = 0.117589, Final residual = 0.00818023, No Iterations 5
time step continuity errors : sum local = 1.5198e-05, global = 2.41934e-19, cumulative = -1.60057e-17
Pressure gradient source: uncorrected Ubar = 1.00006, pressure gradient = 0.0404848
smoothSolver:  Solving for omega, Initial residual = 4.02722e-05, Final residual = 3.71672e-06, No Iterations 1
smoothSolver:  Solving for k, Initial residual = 0.0128134, Final residual = 0.000938862, No Iterations 5
ExecutionTime = 0.038784 s  ClockTime = 0 s

Time = 14s

smoothSolver:  Solving for Ux, Initial residual = 0.00353071, Final residual = 0.000256782, No Iterations 5
smoothSolver:  Solving for Uy, Initial residual = 0.316088, Final residual = 0.0260862, No Iterations 4
Pressure gradient source: uncorrected Ubar = 1.00042, pressure gradient = 0.0243571
GAMG:  Solving for p, Initial residual = 0.124244, Final residual = 0.0112433, No Iterations 5
time step continuity errors : sum local = 1.74576e-05, global = 1.59805e-18, cumulative = -1.44077e-17
Pressure gradient source: uncorrected Ubar = 1.00005, pressure gradient = 0.0387133
smoothSolver:  Solving for omega, Initial residual = 2.38748e-05, Final residual = 3.01298e-06, No Iterations 1
smoothSolver:  Solving for k, Initial residual = 0.0120076, Final residual = 0.000917851, No Iterations 5
ExecutionTime = 0.040829 s  ClockTime = 0 s

Time = 15s

smoothSolver:  Solving for Ux, Initial residual = 0.00311264, Final residual = 0.00022715, No Iterations 5
smoothSolver:  Solving for Uy, Initial residual = 0.284842, Final residual = 0.0239481, No Iterations 4
Pressure gradient source: uncorrected Ubar = 1.00036, pressure gradient = 0.0249457
GAMG:  Solving for p, Initial residual = 0.12795, Final residual = 0.0111332, No Iterations 7
time step continuity errors : sum local = 1.26394e-05, global = 1.7753e-18, cumulative = -1.26324e-17
Pressure gradient source: uncorrected Ubar = 1.00004, pressure gradient = 0.0372244
smoothSolver:  Solving for omega, Initial residual = 1.46042e-05, Final residual = 2.44312e-06, No Iterations 1
smoothSolver:  Solving for k, Initial residual = 0.0112647, Final residual = 0.000810468, No Iterations 5
ExecutionTime = 0.04296 s  ClockTime = 0 s

Time = 16s

smoothSolver:  Solving for Ux, Initial residual = 0.00275151, Final residual = 0.000201578, No Iterations 5
smoothSolver:  Solving for Uy, Initial residual = 0.260257, Final residual = 0.0222616, No Iterations 4
Pressure gradient source: uncorrected Ubar = 1.00031, pressure gradient = 0.0254245
GAMG:  Solving for p, Initial residual = 0.133829, Final residual = 0.00923691, No Iterations 7
time step continuity errors : sum local = 7.73074e-06, global = 3.74005e-18, cumulative = -8.89231e-18
Pressure gradient source: uncorrected Ubar = 1.00003, pressure gradient = 0.0359691
smoothSolver:  Solving for omega, Initial residual = 9.24732e-06, Final residual = 9.24732e-06, No Iterations 0
smoothSolver:  Solving for k, Initial residual = 0.0110868, Final residual = 0.000847055, No Iterations 5
ExecutionTime = 0.045106 s  ClockTime = 0 s

Time = 17s

smoothSolver:  Solving for Ux, Initial residual = 0.00244338, Final residual = 0.000179093, No Iterations 5
smoothSolver:  Solving for Uy, Initial residual = 0.209368, Final residual = 0.0167877, No Iterations 4
Pressure gradient source: uncorrected Ubar = 1.00027, pressure gradient = 0.0256012
GAMG:  Solving for p, Initial residual = 0.1378, Final residual = 0.0102256, No Iterations 7
time step continuity errors : sum local = 6.73134e-06, global = -1.65767e-17, cumulative = -2.5469e-17
Pressure gradient source: uncorrected Ubar = 1.00003, pressure gradient = 0.034877
smoothSolver:  Solving for omega, Initial residual = 9.25673e-06, Final residual = 9.25673e-06, No Iterations 0
smoothSolver:  Solving for k, Initial residual = 0.011018, Final residual = 0.000858486, No Iterations 5
ExecutionTime = 0.047315 s  ClockTime = 0 s

Time = 18s

smoothSolver:  Solving for Ux, Initial residual = 0.00217637, Final residual = 0.000160154, No Iterations 5
smoothSolver:  Solving for Uy, Initial residual = 0.163177, Final residual = 0.0119561, No Iterations 4
Pressure gradient source: uncorrected Ubar = 1.00024, pressure gradient = 0.0258812
GAMG:  Solving for p, Initial residual = 0.143929, Final residual = 0.0139693, No Iterations 6
time step continuity errors : sum local = 7.17196e-06, global = 7.8863e-18, cumulative = -1.75827e-17
Pressure gradient source: uncorrected Ubar = 1.00002, pressure gradient = 0.0339442
smoothSolver:  Solving for omega, Initial residual = 9.26378e-06, Final residual = 9.26378e-06, No Iterations 0
smoothSolver:  Solving for k, Initial residual = 0.0109657, Final residual = 0.000859194, No Iterations 5
ExecutionTime = 0.049583 s  ClockTime = 0 s

Time = 19s

smoothSolver:  Solving for Ux, Initial residual = 0.00194901, Final residual = 0.00014348, No Iterations 5
smoothSolver:  Solving for Uy, Initial residual = 0.137886, Final residual = 0.00902804, No Iterations 4
Pressure gradient source: uncorrected Ubar = 1.00021, pressure gradient = 0.0261004
GAMG:  Solving for p, Initial residual = 0.144184, Final residual = 0.0134912, No Iterations 6
time step continuity errors : sum local = 5.64108e-06, global = -1.34136e-19, cumulative = -1.77168e-17
Pressure gradient source: uncorrected Ubar = 1.00002, pressure gradient = 0.0331436
smoothSolver:  Solving for omega, Initial residual = 9.26953e-06, Final residual = 9.26953e-06, No Iterations 0
smoothSolver:  Solving for k, Initial residual = 0.0108985, Final residual = 0.000775458, No Iterations 5
ExecutionTime = 0.05181 s  ClockTime = 0 s

Time = 20s

smoothSolver:  Solving for Ux, Initial residual = 0.00174687, Final residual = 0.000129501, No Iterations 5
smoothSolver:  Solving for Uy, Initial residual = 0.13207, Final residual = 0.00889865, No Iterations 4
Pressure gradient source: uncorrected Ubar = 1.00018, pressure gradient = 0.0262374
GAMG:  Solving for p, Initial residual = 0.134533, Final residual = 0.0102693, No Iterations 6
time step continuity errors : sum local = 3.63446e-06, global = 3.16914e-18, cumulative = -1.45477e-17
Pressure gradient source: uncorrected Ubar = 1.00002, pressure gradient = 0.0324485
smoothSolver:  Solving for omega, Initial residual = 9.27469e-06, Final residual = 9.27469e-06, No Iterations 0
smoothSolver:  Solving for k, Initial residual = 0.0108831, Final residual = 0.000945453, No Iterations 5
ExecutionTime = 0.053928 s  ClockTime = 0 s

Time = 21s

smoothSolver:  Solving for Ux, Initial residual = 0.00157328, Final residual = 0.000117086, No Iterations 5
smoothSolver:  Solving for Uy, Initial residual = 0.127624, Final residual = 0.00940292, No Iterations 4
Pressure gradient source: uncorrected Ubar = 1.00016, pressure gradient = 0.0263308
GAMG:  Solving for p, Initial residual = 0.120306, Final residual = 0.00989562, No Iterations 5
time step continuity errors : sum local = 2.84909e-06, global = 1.14919e-17, cumulative = -3.0558e-18
Pressure gradient source: uncorrected Ubar = 1.00002, pressure gradient = 0.0318405
smoothSolver:  Solving for omega, Initial residual = 9.27808e-06, Final residual = 9.27808e-06, No Iterations 0
smoothSolver:  Solving for k, Initial residual = 0.0108448, Final residual = 0.000845883, No Iterations 5
ExecutionTime = 0.055977 s  ClockTime = 0 s

Time = 22s

smoothSolver:  Solving for Ux, Initial residual = 0.00142038, Final residual = 0.000106477, No Iterations 5
smoothSolver:  Solving for Uy, Initial residual = 0.136429, Final residual = 0.0102714, No Iterations 4
Pressure gradient source: uncorrected Ubar = 1.00014, pressure gradient = 0.0264258
GAMG:  Solving for p, Initial residual = 0.107247, Final residual = 0.00870102, No Iterations 4
time step continuity errors : sum local = 2.1686e-06, global = 1.14878e-17, cumulative = 8.43197e-18
Pressure gradient source: uncorrected Ubar = 1.00001, pressure gradient = 0.0313103
smoothSolver:  Solving for omega, Initial residual = 9.28144e-06, Final residual = 9.28144e-06, No Iterations 0
smoothSolver:  Solving for k, Initial residual = 0.0108062, Final residual = 0.000811982, No Iterations 5
ExecutionTime = 0.057902 s  ClockTime = 0 s

Time = 23s

smoothSolver:  Solving for Ux, Initial residual = 0.00128663, Final residual = 9.72033e-05, No Iterations 5
smoothSolver:  Solving for Uy, Initial residual = 0.143352, Final residual = 0.0113366, No Iterations 4
Pressure gradient source: uncorrected Ubar = 1.00013, pressure gradient = 0.0264962
GAMG:  Solving for p, Initial residual = 0.100976, Final residual = 0.00496539, No Iterations 4
time step continuity errors : sum local = 1.13072e-06, global = 6.94938e-18, cumulative = 1.53814e-17
Pressure gradient source: uncorrected Ubar = 1.00001, pressure gradient = 0.0308456
smoothSolver:  Solving for omega, Initial residual = 9.28441e-06, Final residual = 9.28441e-06, No Iterations 0
smoothSolver:  Solving for k, Initial residual = 0.010768, Final residual = 0.000760802, No Iterations 5
ExecutionTime = 0.059928 s  ClockTime = 0 s

Time = 24s

smoothSolver:  Solving for Ux, Initial residual = 0.00117254, Final residual = 8.90101e-05, No Iterations 5
smoothSolver:  Solving for Uy, Initial residual = 0.150559, Final residual = 0.0121765, No Iterations 4
Pressure gradient source: uncorrected Ubar = 1.00011, pressure gradient = 0.0265466
GAMG:  Solving for p, Initial residual = 0.0933654, Final residual = 0.00280562, No Iterations 4
time step continuity errors : sum local = 5.61455e-07, global = 2.1959e-18, cumulative = 1.75773e-17
Pressure gradient source: uncorrected Ubar = 1.00001, pressure gradient = 0.0304363
smoothSolver:  Solving for omega, Initial residual = 9.28674e-06, Final residual = 9.28674e-06, No Iterations 0
smoothSolver:  Solving for k, Initial residual = 0.0107499, Final residual = 0.000793447, No Iterations 5
ExecutionTime = 0.061999 s  ClockTime = 0 s

Time = 25s

smoothSolver:  Solving for Ux, Initial residual = 0.00107219, Final residual = 8.17847e-05, No Iterations 5
smoothSolver:  Solving for Uy, Initial residual = 0.152195, Final residual = 0.0122341, No Iterations 4
Pressure gradient source: uncorrected Ubar = 1.0001, pressure gradient = 0.0265851
GAMG:  Solving for p, Initial residual = 0.0833558, Final residual = 0.00302837, No Iterations 4
time step continuity errors : sum local = 5.66512e-07, global = -6.33298e-18, cumulative = 1.12443e-17
Pressure gradient source: uncorrected Ubar = 1.00001, pressure gradient = 0.0300746
smoothSolver:  Solving for omega, Initial residual = 9.28855e-06, Final residual = 9.28855e-06, No Iterations 0
smoothSolver:  Solving for k, Initial residual = 0.0107462, Final residual = 0.000849588, No Iterations 5
ExecutionTime = 0.064087 s  ClockTime = 0 s

Time = 26s

smoothSolver:  Solving for Ux, Initial residual = 0.000985864, Final residual = 7.52415e-05, No Iterations 5
smoothSolver:  Solving for Uy, Initial residual = 0.153169, Final residual = 0.0118733, No Iterations 4
Pressure gradient source: uncorrected Ubar = 1.00009, pressure gradient = 0.026616
GAMG:  Solving for p, Initial residual = 0.0754237, Final residual = 0.0057057, No Iterations 4
time step continuity errors : sum local = 9.51458e-07, global = 1.03571e-17, cumulative = 2.16014e-17
Pressure gradient source: uncorrected Ubar = 1.00001, pressure gradient = 0.0297542
smoothSolver:  Solving for omega, Initial residual = 9.29028e-06, Final residual = 9.29028e-06, No Iterations 0
smoothSolver:  Solving for k, Initial residual = 0.010728, Final residual = 0.000849573, No Iterations 5
ExecutionTime = 0.066292 s  ClockTime = 0 s

Time = 27s

smoothSolver:  Solving for Ux, Initial residual = 0.00090719, Final residual = 6.94359e-05, No Iterations 5
smoothSolver:  Solving for Uy, Initial residual = 0.150683, Final residual = 0.0113188, No Iterations 4
Pressure gradient source: uncorrected Ubar = 1.00008, pressure gradient = 0.0266394
GAMG:  Solving for p, Initial residual = 0.0680511, Final residual = 0.00581746, No Iterations 5
time step continuity errors : sum local = 8.75826e-07, global = -3.77602e-18, cumulative = 1.78254e-17
Pressure gradient source: uncorrected Ubar = 1.00001, pressure gradient = 0.0294696
smoothSolver:  Solving for omega, Initial residual = 9.29201e-06, Final residual = 9.29201e-06, No Iterations 0
smoothSolver:  Solving for k, Initial residual = 0.0107058, Final residual = 0.000790714, No Iterations 5
ExecutionTime = 0.068344 s  ClockTime = 0 s

Time = 28s

smoothSolver:  Solving for Ux, Initial residual = 0.000837491, Final residual = 6.41318e-05, No Iterations 5
smoothSolver:  Solving for Uy, Initial residual = 0.149212, Final residual = 0.0110707, No Iterations 4
Pressure gradient source: uncorrected Ubar = 1.00007, pressure gradient = 0.0266594
GAMG:  Solving for p, Initial residual = 0.0618133, Final residual = 0.00492478, No Iterations 4
time step continuity errors : sum local = 6.82113e-07, global = 9.15548e-20, cumulative = 1.79169e-17
Pressure gradient source: uncorrected Ubar = 1.00001, pressure gradient = 0.0292165
smoothSolver:  Solving for omega, Initial residual = 9.29327e-06, Final residual = 9.29327e-06, No Iterations 0
smoothSolver:  Solving for k, Initial residual = 0.0106883, Final residual = 0.000767225, No Iterations 5
ExecutionTime = 0.070329 s  ClockTime = 0 s

Time = 29s

smoothSolver:  Solving for Ux, Initial residual = 0.000773126, Final residual = 5.93472e-05, No Iterations 5
smoothSolver:  Solving for Uy, Initial residual = 0.136727, Final residual = 0.010194, No Iterations 4
Pressure gradient source: uncorrected Ubar = 1.00007, pressure gradient = 0.0266738
GAMG:  Solving for p, Initial residual = 0.0609686, Final residual = 0.00449443, No Iterations 4
time step continuity errors : sum local = 5.61915e-07, global = 1.56841e-17, cumulative = 3.3601e-17
Pressure gradient source: uncorrected Ubar = 1.00001, pressure gradient = 0.0289908
smoothSolver:  Solving for omega, Initial residual = 9.2946e-06, Final residual = 9.2946e-06, No Iterations 0
smoothSolver:  Solving for k, Initial residual = 0.0106774, Final residual = 0.000790931, No Iterations 5
ExecutionTime = 0.072305 s  ClockTime = 0 s

Time = 30s

smoothSolver:  Solving for Ux, Initial residual = 0.000715932, Final residual = 5.49916e-05, No Iterations 5
smoothSolver:  Solving for Uy, Initial residual = 0.122772, Final residual = 0.00937789, No Iterations 4
Pressure gradient source: uncorrected Ubar = 1.00006, pressure gradient = 0.0266844
GAMG:  Solving for p, Initial residual = 0.0591999, Final residual = 0.00345465, No Iterations 4
time step continuity errors : sum local = 3.8651e-07, global = -3.25409e-18, cumulative = 3.03469e-17
Pressure gradient source: uncorrected Ubar = 1.00001, pressure gradient = 0.0287888
smoothSolver:  Solving for omega, Initial residual = 9.29592e-06, Final residual = 9.29592e-06, No Iterations 0
smoothSolver:  Solving for k, Initial residual = 0.0106906, Final residual = 0.000925263, No Iterations 5
ExecutionTime = 0.074267 s  ClockTime = 0 s

Time = 31s

smoothSolver:  Solving for Ux, Initial residual = 0.000664132, Final residual = 5.10266e-05, No Iterations 5
smoothSolver:  Solving for Uy, Initial residual = 0.106808, Final residual = 0.00861701, No Iterations 4
Pressure gradient source: uncorrected Ubar = 1.00006, pressure gradient = 0.0266914
GAMG:  Solving for p, Initial residual = 0.0564738, Final residual = 0.0030774, No Iterations 4
time step continuity errors : sum local = 3.01391e-07, global = 6.98652e-18, cumulative = 3.73334e-17
Pressure gradient source: uncorrected Ubar = 1, pressure gradient = 0.0286077
smoothSolver:  Solving for omega, Initial residual = 9.29713e-06, Final residual = 9.29713e-06, No Iterations 0
smoothSolver:  Solving for k, Initial residual = 0.0106722, Final residual = 0.000856134, No Iterations 5
ExecutionTime = 0.076169 s  ClockTime = 0 s

Time = 32s

smoothSolver:  Solving for Ux, Initial residual = 0.000617913, Final residual = 4.75245e-05, No Iterations 5
smoothSolver:  Solving for Uy, Initial residual = 0.0923139, Final residual = 0.0080601, No Iterations 4
Pressure gradient source: uncorrected Ubar = 1.00005, pressure gradient = 0.026698
GAMG:  Solving for p, Initial residual = 0.0538435, Final residual = 0.00522879, No Iterations 3
time step continuity errors : sum local = 4.43144e-07, global = 4.45235e-18, cumulative = 4.17858e-17
Pressure gradient source: uncorrected Ubar = 1, pressure gradient = 0.0284453
smoothSolver:  Solving for omega, Initial residual = 9.29829e-06, Final residual = 9.29829e-06, No Iterations 0
smoothSolver:  Solving for k, Initial residual = 0.0106414, Final residual = 0.000717736, No Iterations 5
ExecutionTime = 0.078039 s  ClockTime = 0 s

Time = 33s

smoothSolver:  Solving for Ux, Initial residual = 0.000575192, Final residual = 4.42825e-05, No Iterations 5
smoothSolver:  Solving for Uy, Initial residual = 0.0813927, Final residual = 0.00740242, No Iterations 4
Pressure gradient source: uncorrected Ubar = 1.00005, pressure gradient = 0.0267033
GAMG:  Solving for p, Initial residual = 0.0527606, Final residual = 0.00487262, No Iterations 3
time step continuity errors : sum local = 3.68947e-07, global = 5.50203e-18, cumulative = 4.72878e-17
Pressure gradient source: uncorrected Ubar = 1, pressure gradient = 0.0282992
smoothSolver:  Solving for omega, Initial residual = 9.29912e-06, Final residual = 9.29912e-06, No Iterations 0
smoothSolver:  Solving for k, Initial residual = 0.0106434, Final residual = 0.000789256, No Iterations 5
ExecutionTime = 0.080029 s  ClockTime = 0 s

Time = 34s

smoothSolver:  Solving for Ux, Initial residual = 0.000536483, Final residual = 4.14268e-05, No Iterations 5
smoothSolver:  Solving for Uy, Initial residual = 0.0772977, Final residual = 0.00702878, No Iterations 4
Pressure gradient source: uncorrected Ubar = 1.00004, pressure gradient = 0.0267055
GAMG:  Solving for p, Initial residual = 0.0525586, Final residual = 0.00428921, No Iterations 3
time step continuity errors : sum local = 2.91467e-07, global = -2.9309e-18, cumulative = 4.43569e-17
Pressure gradient source: uncorrected Ubar = 1, pressure gradient = 0.0281675
smoothSolver:  Solving for omega, Initial residual = 9.29987e-06, Final residual = 9.29987e-06, No Iterations 0
smoothSolver:  Solving for k, Initial residual = 0.0106428, Final residual = 0.000884098, No Iterations 5
ExecutionTime = 0.082085 s  ClockTime = 0 s

Time = 35s

smoothSolver:  Solving for Ux, Initial residual = 0.000501023, Final residual = 3.87717e-05, No Iterations 5
smoothSolver:  Solving for Uy, Initial residual = 0.0754261, Final residual = 0.0068047, No Iterations 4
Pressure gradient source: uncorrected Ubar = 1.00004, pressure gradient = 0.026707
GAMG:  Solving for p, Initial residual = 0.0524408, Final residual = 0.00358154, No Iterations 3
time step continuity errors : sum local = 2.20097e-07, global = -4.03382e-18, cumulative = 4.03231e-17
Pressure gradient source: uncorrected Ubar = 1, pressure gradient = 0.0280486
smoothSolver:  Solving for omega, Initial residual = 9.30053e-06, Final residual = 9.30053e-06, No Iterations 0
smoothSolver:  Solving for k, Initial residual = 0.0106518, Final residual = 0.000915533, No Iterations 5
ExecutionTime = 0.084171 s  ClockTime = 0 s

Time = 36s

smoothSolver:  Solving for Ux, Initial residual = 0.00046843, Final residual = 3.63699e-05, No Iterations 5
smoothSolver:  Solving for Uy, Initial residual = 0.074277, Final residual = 0.00664089, No Iterations 4
Pressure gradient source: uncorrected Ubar = 1.00004, pressure gradient = 0.0267081
GAMG:  Solving for p, Initial residual = 0.0512547, Final residual = 0.00253179, No Iterations 3
time step continuity errors : sum local = 1.45402e-07, global = 3.80322e-18, cumulative = 4.41263e-17
Pressure gradient source: uncorrected Ubar = 1, pressure gradient = 0.027941
smoothSolver:  Solving for omega, Initial residual = 9.30113e-06, Final residual = 9.30113e-06, No Iterations 0
smoothSolver:  Solving for k, Initial residual = 0.01063, Final residual = 0.000789578, No Iterations 5
ExecutionTime = 0.086192 s  ClockTime = 0 s

Time = 37s

smoothSolver:  Solving for Ux, Initial residual = 0.00043889, Final residual = 3.41747e-05, No Iterations 5
smoothSolver:  Solving for Uy, Initial residual = 0.0726118, Final residual = 0.00653176, No Iterations 4
Pressure gradient source: uncorrected Ubar = 1.00003, pressure gradient = 0.0267086
GAMG:  Solving for p, Initial residual = 0.0485863, Final residual = 0.00254051, No Iterations 3
time step continuity errors : sum local = 1.28428e-07, global = 4.16374e-19, cumulative = 4.45427e-17
Pressure gradient source: uncorrected Ubar = 1, pressure gradient = 0.0278435
smoothSolver:  Solving for omega, Initial residual = 9.30164e-06, Final residual = 9.30164e-06, No Iterations 0
smoothSolver:  Solving for k, Initial residual = 0.0106255, Final residual = 0.000822068, No Iterations 5
ExecutionTime = 0.088091 s  ClockTime = 0 s

Time = 38s

smoothSolver:  Solving for Ux, Initial residual = 0.000411895, Final residual = 3.21393e-05, No Iterations 5
smoothSolver:  Solving for Uy, Initial residual = 0.0714817, Final residual = 0.00639682, No Iterations 4
Pressure gradient source: uncorrected Ubar = 1.00003, pressure gradient = 0.0267081
GAMG:  Solving for p, Initial residual = 0.0465947, Final residual = 0.00309652, No Iterations 3
time step continuity errors : sum local = 1.39504e-07, global = -4.88449e-18, cumulative = 3.96582e-17
Pressure gradient source: uncorrected Ubar = 1, pressure gradient = 0.0277551
smoothSolver:  Solving for omega, Initial residual = 9.30208e-06, Final residual = 9.30208e-06, No Iterations 0
smoothSolver:  Solving for k, Initial residual = 0.0106272, Final residual = 0.00086287, No Iterations 5
ExecutionTime = 0.090002 s  ClockTime = 0 s

Time = 39s

smoothSolver:  Solving for Ux, Initial residual = 0.000387606, Final residual = 3.03278e-05, No Iterations 5
smoothSolver:  Solving for Uy, Initial residual = 0.0690098, Final residual = 0.00623542, No Iterations 4
Pressure gradient source: uncorrected Ubar = 1.00003, pressure gradient = 0.0267073
GAMG:  Solving for p, Initial residual = 0.0437332, Final residual = 0.00366652, No Iterations 3
time step continuity errors : sum local = 1.5786e-07, global = 2.90154e-18, cumulative = 4.25597e-17
Pressure gradient source: uncorrected Ubar = 1, pressure gradient = 0.0276746
smoothSolver:  Solving for omega, Initial residual = 9.30238e-06, Final residual = 9.30238e-06, No Iterations 0
smoothSolver:  Solving for k, Initial residual = 0.0106211, Final residual = 0.000857181, No Iterations 5
ExecutionTime = 0.091926 s  ClockTime = 0 s

Time = 40s

smoothSolver:  Solving for Ux, Initial residual = 0.000365287, Final residual = 2.87016e-05, No Iterations 5
smoothSolver:  Solving for Uy, Initial residual = 0.0669794, Final residual = 0.00608001, No Iterations 4
Pressure gradient source: uncorrected Ubar = 1.00003, pressure gradient = 0.0267063
GAMG:  Solving for p, Initial residual = 0.0408349, Final residual = 0.00298229, No Iterations 4
time step continuity errors : sum local = 1.23265e-07, global = 2.99692e-18, cumulative = 4.55567e-17
Pressure gradient source: uncorrected Ubar = 1, pressure gradient = 0.0276014
smoothSolver:  Solving for omega, Initial residual = 9.30275e-06, Final residual = 9.30275e-06, No Iterations 0
smoothSolver:  Solving for k, Initial residual = 0.0106142, Final residual = 0.000850983, No Iterations 5
ExecutionTime = 0.093858 s  ClockTime = 0 s

Time = 41s

smoothSolver:  Solving for Ux, Initial residual = 0.000344628, Final residual = 2.72051e-05, No Iterations 5
smoothSolver:  Solving for Uy, Initial residual = 0.0658766, Final residual = 0.00618545, No Iterations 4
Pressure gradient source: uncorrected Ubar = 1.00002, pressure gradient = 0.0267049
GAMG:  Solving for p, Initial residual = 0.0385383, Final residual = 0.00380518, No Iterations 4
time step continuity errors : sum local = 1.42898e-07, global = -1.36765e-18, cumulative = 4.4189e-17
Pressure gradient source: uncorrected Ubar = 1, pressure gradient = 0.0275345
smoothSolver:  Solving for omega, Initial residual = 9.30314e-06, Final residual = 9.30314e-06, No Iterations 0
smoothSolver:  Solving for k, Initial residual = 0.0105887, Final residual = 0.000767712, No Iterations 5
ExecutionTime = 0.09593 s  ClockTime = 0 s

Time = 42s

smoothSolver:  Solving for Ux, Initial residual = 0.0003258, Final residual = 2.58661e-05, No Iterations 5
smoothSolver:  Solving for Uy, Initial residual = 0.0630891, Final residual = 0.00607827, No Iterations 4
Pressure gradient source: uncorrected Ubar = 1.00002, pressure gradient = 0.0267034
GAMG:  Solving for p, Initial residual = 0.0371087, Final residual = 0.00217797, No Iterations 5
time step continuity errors : sum local = 7.65925e-08, global = 5.8669e-18, cumulative = 5.00559e-17
Pressure gradient source: uncorrected Ubar = 1, pressure gradient = 0.0274735
smoothSolver:  Solving for omega, Initial residual = 9.30348e-06, Final residual = 9.30348e-06, No Iterations 0
smoothSolver:  Solving for k, Initial residual = 0.0105856, Final residual = 0.000830334, No Iterations 5
ExecutionTime = 0.097917 s  ClockTime = 0 s

Time = 43s

smoothSolver:  Solving for Ux, Initial residual = 0.000308545, Final residual = 2.46619e-05, No Iterations 5
smoothSolver:  Solving for Uy, Initial residual = 0.0604474, Final residual = 0.00595272, No Iterations 4
Pressure gradient source: uncorrected Ubar = 1.00002, pressure gradient = 0.0267016
GAMG:  Solving for p, Initial residual = 0.0353585, Final residual = 0.00320398, No Iterations 4
time step continuity errors : sum local = 1.05334e-07, global = 8.40769e-18, cumulative = 5.84636e-17
Pressure gradient source: uncorrected Ubar = 1, pressure gradient = 0.0274176
smoothSolver:  Solving for omega, Initial residual = 9.30374e-06, Final residual = 9.30374e-06, No Iterations 0
smoothSolver:  Solving for k, Initial residual = 0.0105882, Final residual = 0.000863095, No Iterations 5
ExecutionTime = 0.100146 s  ClockTime = 0 s

Time = 44s

smoothSolver:  Solving for Ux, Initial residual = 0.000292651, Final residual = 2.35653e-05, No Iterations 5
smoothSolver:  Solving for Uy, Initial residual = 0.0561539, Final residual = 0.00543235, No Iterations 4
Pressure gradient source: uncorrected Ubar = 1.00002, pressure gradient = 0.0266997
GAMG:  Solving for p, Initial residual = 0.0339634, Final residual = 0.00248516, No Iterations 4
time step continuity errors : sum local = 8.15502e-08, global = -1.22068e-17, cumulative = 4.62568e-17
Pressure gradient source: uncorrected Ubar = 1, pressure gradient = 0.0273663
smoothSolver:  Solving for omega, Initial residual = 9.30391e-06, Final residual = 9.30391e-06, No Iterations 0
smoothSolver:  Solving for k, Initial residual = 0.0105667, Final residual = 0.000819037, No Iterations 5
ExecutionTime = 0.102216 s  ClockTime = 0 s

Time = 45s

smoothSolver:  Solving for Ux, Initial residual = 0.000278093, Final residual = 2.25743e-05, No Iterations 5
smoothSolver:  Solving for Uy, Initial residual = 0.0526877, Final residual = 0.00505866, No Iterations 4
Pressure gradient source: uncorrected Ubar = 1.00002, pressure gradient = 0.0266979
GAMG:  Solving for p, Initial residual = 0.0325118, Final residual = 0.00238769, No Iterations 4
time step continuity errors : sum local = 7.34914e-08, global = -3.77914e-19, cumulative = 4.58789e-17
Pressure gradient source: uncorrected Ubar = 1, pressure gradient = 0.0273193
smoothSolver:  Solving for omega, Initial residual = 9.30415e-06, Final residual = 9.30415e-06, No Iterations 0
smoothSolver:  Solving for k, Initial residual = 0.010544, Final residual = 0.000723396, No Iterations 5
ExecutionTime = 0.104116 s  ClockTime = 0 s

Time = 46s

smoothSolver:  Solving for Ux, Initial residual = 0.000265149, Final residual = 2.16861e-05, No Iterations 5
smoothSolver:  Solving for Uy, Initial residual = 0.0495187, Final residual = 0.0048033, No Iterations 4
Pressure gradient source: uncorrected Ubar = 1.00002, pressure gradient = 0.0266958
GAMG:  Solving for p, Initial residual = 0.0312976, Final residual = 0.00241737, No Iterations 4
time step continuity errors : sum local = 7.0579e-08, global = -8.10021e-18, cumulative = 3.77787e-17
Pressure gradient source: uncorrected Ubar = 1, pressure gradient = 0.027276
smoothSolver:  Solving for omega, Initial residual = 9.30434e-06, Final residual = 9.30434e-06, No Iterations 0
smoothSolver:  Solving for k, Initial residual = 0.0105629, Final residual = 0.000897331, No Iterations 5
ExecutionTime = 0.106069 s  ClockTime = 0 s

Time = 47s

smoothSolver:  Solving for Ux, Initial residual = 0.000253382, Final residual = 2.09029e-05, No Iterations 5
smoothSolver:  Solving for Uy, Initial residual = 0.0470464, Final residual = 0.00450124, No Iterations 4
Pressure gradient source: uncorrected Ubar = 1.00002, pressure gradient = 0.0266937
GAMG:  Solving for p, Initial residual = 0.0303525, Final residual = 0.00250675, No Iterations 4
time step continuity errors : sum local = 6.96193e-08, global = 1.405e-18, cumulative = 3.91837e-17
Pressure gradient source: uncorrected Ubar = 1, pressure gradient = 0.0272362
smoothSolver:  Solving for omega, Initial residual = 9.30451e-06, Final residual = 9.30451e-06, No Iterations 0
smoothSolver:  Solving for k, Initial residual = 0.0105508, Final residual = 0.000883159, No Iterations 5
ExecutionTime = 0.107966 s  ClockTime = 0 s

Time = 48s

smoothSolver:  Solving for Ux, Initial residual = 0.000242649, Final residual = 2.02328e-05, No Iterations 5
smoothSolver:  Solving for Uy, Initial residual = 0.0449834, Final residual = 0.00421896, No Iterations 4
Pressure gradient source: uncorrected Ubar = 1.00001, pressure gradient = 0.0266917
GAMG:  Solving for p, Initial residual = 0.0294953, Final residual = 0.00253445, No Iterations 4
time step continuity errors : sum local = 6.71483e-08, global = 6.98062e-18, cumulative = 4.61643e-17
Pressure gradient source: uncorrected Ubar = 1, pressure gradient = 0.0271995
smoothSolver:  Solving for omega, Initial residual = 9.30465e-06, Final residual = 9.30465e-06, No Iterations 0
smoothSolver:  Solving for k, Initial residual = 0.0105125, Final residual = 0.00071981, No Iterations 5
ExecutionTime = 0.10989 s  ClockTime = 0 s

Time = 49s

smoothSolver:  Solving for Ux, Initial residual = 0.000232898, Final residual = 1.9647e-05, No Iterations 5
smoothSolver:  Solving for Uy, Initial residual = 0.0424796, Final residual = 0.00392931, No Iterations 4
Pressure gradient source: uncorrected Ubar = 1.00001, pressure gradient = 0.0266897
GAMG:  Solving for p, Initial residual = 0.0284292, Final residual = 0.00275288, No Iterations 4
time step continuity errors : sum local = 6.85871e-08, global = -4.03297e-18, cumulative = 4.21313e-17
Pressure gradient source: uncorrected Ubar = 1, pressure gradient = 0.0271656
smoothSolver:  Solving for omega, Initial residual = 9.30479e-06, Final residual = 9.30479e-06, No Iterations 0
smoothSolver:  Solving for k, Initial residual = 0.0105062, Final residual = 0.000761256, No Iterations 5
ExecutionTime = 0.11182 s  ClockTime = 0 s

Time = 50s

smoothSolver:  Solving for Ux, Initial residual = 0.000224146, Final residual = 1.91634e-05, No Iterations 5
smoothSolver:  Solving for Uy, Initial residual = 0.0406664, Final residual = 0.0037004, No Iterations 4
Pressure gradient source: uncorrected Ubar = 1.00001, pressure gradient = 0.0266876
GAMG:  Solving for p, Initial residual = 0.0276879, Final residual = 0.00273883, No Iterations 3
time step continuity errors : sum local = 6.48713e-08, global = 4.13983e-18, cumulative = 4.62712e-17
Pressure gradient source: uncorrected Ubar = 1, pressure gradient = 0.0271342
smoothSolver:  Solving for omega, Initial residual = 9.30489e-06, Final residual = 9.30489e-06, No Iterations 0
smoothSolver:  Solving for k, Initial residual = 0.0105145, Final residual = 0.000868566, No Iterations 5
ExecutionTime = 0.113817 s  ClockTime = 0 s

Time = 51s

smoothSolver:  Solving for Ux, Initial residual = 0.000216279, Final residual = 1.87585e-05, No Iterations 5
smoothSolver:  Solving for Uy, Initial residual = 0.0395817, Final residual = 0.0034695, No Iterations 4
Pressure gradient source: uncorrected Ubar = 1.00001, pressure gradient = 0.0266856
GAMG:  Solving for p, Initial residual = 0.0268652, Final residual = 0.00259177, No Iterations 4
time step continuity errors : sum local = 5.7298e-08, global = 2.86063e-18, cumulative = 4.91318e-17
Pressure gradient source: uncorrected Ubar = 1, pressure gradient = 0.0271052
smoothSolver:  Solving for omega, Initial residual = 9.30501e-06, Final residual = 9.30501e-06, No Iterations 0
smoothSolver:  Solving for k, Initial residual = 0.0104903, Final residual = 0.000767594, No Iterations 5
ExecutionTime = 0.11603 s  ClockTime = 0 s

Time = 52s

smoothSolver:  Solving for Ux, Initial residual = 0.000209298, Final residual = 1.84344e-05, No Iterations 5
smoothSolver:  Solving for Uy, Initial residual = 0.0367514, Final residual = 0.00324021, No Iterations 4
Pressure gradient source: uncorrected Ubar = 1.00001, pressure gradient = 0.0266836
GAMG:  Solving for p, Initial residual = 0.0259389, Final residual = 0.00206808, No Iterations 3
time step continuity errors : sum local = 4.40938e-08, global = 8.28201e-18, cumulative = 5.74138e-17
Pressure gradient source: uncorrected Ubar = 1, pressure gradient = 0.0270782
smoothSolver:  Solving for omega, Initial residual = 9.30509e-06, Final residual = 9.30509e-06, No Iterations 0
smoothSolver:  Solving for k, Initial residual = 0.0104895, Final residual = 0.000831548, No Iterations 5
ExecutionTime = 0.118002 s  ClockTime = 0 s

Time = 53s

smoothSolver:  Solving for Ux, Initial residual = 0.000203212, Final residual = 1.81522e-05, No Iterations 5
smoothSolver:  Solving for Uy, Initial residual = 0.036265, Final residual = 0.00311536, No Iterations 4
Pressure gradient source: uncorrected Ubar = 1.00001, pressure gradient = 0.0266817
GAMG:  Solving for p, Initial residual = 0.025165, Final residual = 0.00202778, No Iterations 3
time step continuity errors : sum local = 4.15832e-08, global = 1.66769e-18, cumulative = 5.90815e-17
Pressure gradient source: uncorrected Ubar = 1, pressure gradient = 0.0270532
smoothSolver:  Solving for omega, Initial residual = 9.30514e-06, Final residual = 9.30514e-06, No Iterations 0
smoothSolver:  Solving for k, Initial residual = 0.0104648, Final residual = 0.000779958, No Iterations 5
ExecutionTime = 0.119997 s  ClockTime = 0 s

Time = 54s

smoothSolver:  Solving for Ux, Initial residual = 0.000197994, Final residual = 1.78615e-05, No Iterations 5
smoothSolver:  Solving for Uy, Initial residual = 0.0342684, Final residual = 0.00289171, No Iterations 4
Pressure gradient source: uncorrected Ubar = 1.00001, pressure gradient = 0.0266797
GAMG:  Solving for p, Initial residual = 0.024343, Final residual = 0.00198702, No Iterations 3
time step continuity errors : sum local = 3.80076e-08, global = -4.47251e-18, cumulative = 5.4609e-17
Pressure gradient source: uncorrected Ubar = 1, pressure gradient = 0.02703
smoothSolver:  Solving for omega, Initial residual = 9.30521e-06, Final residual = 9.30521e-06, No Iterations 0
smoothSolver:  Solving for k, Initial residual = 0.0104492, Final residual = 0.000764593, No Iterations 5
ExecutionTime = 0.121876 s  ClockTime = 0 s

Time = 55s

smoothSolver:  Solving for Ux, Initial residual = 0.000192999, Final residual = 1.75638e-05, No Iterations 5
smoothSolver:  Solving for Uy, Initial residual = 0.0328141, Final residual = 0.00273465, No Iterations 4
Pressure gradient source: uncorrected Ubar = 1.00001, pressure gradient = 0.0266778
GAMG:  Solving for p, Initial residual = 0.0235543, Final residual = 0.00193988, No Iterations 3
time step continuity errors : sum local = 3.51017e-08, global = 5.51034e-18, cumulative = 6.01193e-17
Pressure gradient source: uncorrected Ubar = 1, pressure gradient = 0.0270084
smoothSolver:  Solving for omega, Initial residual = 9.30525e-06, Final residual = 9.30525e-06, No Iterations 0
smoothSolver:  Solving for k, Initial residual = 0.010471, Final residual = 0.000937019, No Iterations 5
ExecutionTime = 0.123747 s  ClockTime = 0 s

Time = 56s

smoothSolver:  Solving for Ux, Initial residual = 0.00018821, Final residual = 1.72662e-05, No Iterations 5
smoothSolver:  Solving for Uy, Initial residual = 0.0314328, Final residual = 0.00259535, No Iterations 4
Pressure gradient source: uncorrected Ubar = 1.00001, pressure gradient = 0.026676
GAMG:  Solving for p, Initial residual = 0.022765, Final residual = 0.00197605, No Iterations 3
time step continuity errors : sum local = 3.44123e-08, global = 1.78797e-18, cumulative = 6.19073e-17
Pressure gradient source: uncorrected Ubar = 1, pressure gradient = 0.0269882
smoothSolver:  Solving for omega, Initial residual = 9.30527e-06, Final residual = 9.30527e-06, No Iterations 0
smoothSolver:  Solving for k, Initial residual = 0.0104667, Final residual = 0.000885055, No Iterations 5
ExecutionTime = 0.125636 s  ClockTime = 0 s

Time = 57s

smoothSolver:  Solving for Ux, Initial residual = 0.000183531, Final residual = 1.6973e-05, No Iterations 5
smoothSolver:  Solving for Uy, Initial residual = 0.0300892, Final residual = 0.00246134, No Iterations 4
Pressure gradient source: uncorrected Ubar = 1.00001, pressure gradient = 0.0266742
GAMG:  Solving for p, Initial residual = 0.0219806, Final residual = 0.00214179, No Iterations 3
time step continuity errors : sum local = 3.50937e-08, global = -7.99492e-19, cumulative = 6.11078e-17
Pressure gradient source: uncorrected Ubar = 1, pressure gradient = 0.0269694
smoothSolver:  Solving for omega, Initial residual = 9.3053e-06, Final residual = 9.3053e-06, No Iterations 0
smoothSolver:  Solving for k, Initial residual = 0.0104284, Final residual = 0.000729388, No Iterations 5
ExecutionTime = 0.127508 s  ClockTime = 0 s

Time = 58s

smoothSolver:  Solving for Ux, Initial residual = 0.000178955, Final residual = 1.66748e-05, No Iterations 5
smoothSolver:  Solving for Uy, Initial residual = 0.0292637, Final residual = 0.00234851, No Iterations 4
Pressure gradient source: uncorrected Ubar = 1.00001, pressure gradient = 0.0266724
GAMG:  Solving for p, Initial residual = 0.0210803, Final residual = 0.00200017, No Iterations 4
time step continuity errors : sum local = 3.23577e-08, global = -1.6249e-18, cumulative = 5.94829e-17
Pressure gradient source: uncorrected Ubar = 1, pressure gradient = 0.0269518
smoothSolver:  Solving for omega, Initial residual = 9.30531e-06, Final residual = 9.30531e-06, No Iterations 0
smoothSolver:  Solving for k, Initial residual = 0.010414, Final residual = 0.000763662, No Iterations 5
ExecutionTime = 0.129532 s  ClockTime = 0 s

Time = 59s

smoothSolver:  Solving for Ux, Initial residual = 0.000174483, Final residual = 1.63783e-05, No Iterations 5
smoothSolver:  Solving for Uy, Initial residual = 0.0277484, Final residual = 0.00211703, No Iterations 4
Pressure gradient source: uncorrected Ubar = 1.00001, pressure gradient = 0.0266707
GAMG:  Solving for p, Initial residual = 0.0208184, Final residual = 0.00186975, No Iterations 4
time step continuity errors : sum local = 2.86665e-08, global = -9.97335e-18, cumulative = 4.95096e-17
Pressure gradient source: uncorrected Ubar = 1, pressure gradient = 0.0269354
smoothSolver:  Solving for omega, Initial residual = 9.30529e-06, Final residual = 9.30529e-06, No Iterations 0
smoothSolver:  Solving for k, Initial residual = 0.0104287, Final residual = 0.000894061, No Iterations 5
ExecutionTime = 0.131565 s  ClockTime = 0 s

Time = 60s

smoothSolver:  Solving for Ux, Initial residual = 0.000170113, Final residual = 1.60789e-05, No Iterations 5
smoothSolver:  Solving for Uy, Initial residual = 0.0270469, Final residual = 0.00202657, No Iterations 4
Pressure gradient source: uncorrected Ubar = 1.00001, pressure gradient = 0.026669
GAMG:  Solving for p, Initial residual = 0.0202886, Final residual = 0.00192356, No Iterations 4
time step continuity errors : sum local = 2.86946e-08, global = 1.4913e-18, cumulative = 5.10009e-17
Pressure gradient source: uncorrected Ubar = 1, pressure gradient = 0.02692
smoothSolver:  Solving for omega, Initial residual = 9.30529e-06, Final residual = 9.30529e-06, No Iterations 0
smoothSolver:  Solving for k, Initial residual = 0.010405, Final residual = 0.000767035, No Iterations 5
ExecutionTime = 0.133699 s  ClockTime = 0 s

Time = 61s

smoothSolver:  Solving for Ux, Initial residual = 0.000165841, Final residual = 1.5777e-05, No Iterations 5
smoothSolver:  Solving for Uy, Initial residual = 0.0263997, Final residual = 0.00194074, No Iterations 4
Pressure gradient source: uncorrected Ubar = 1.00001, pressure gradient = 0.0266674
GAMG:  Solving for p, Initial residual = 0.0198878, Final residual = 0.00197461, No Iterations 4
time step continuity errors : sum local = 2.83766e-08, global = 1.07312e-17, cumulative = 6.17321e-17
Pressure gradient source: uncorrected Ubar = 1, pressure gradient = 0.0269056
smoothSolver:  Solving for omega, Initial residual = 9.30526e-06, Final residual = 9.30526e-06, No Iterations 0
smoothSolver:  Solving for k, Initial residual = 0.0104004, Final residual = 0.000805487, No Iterations 5
ExecutionTime = 0.135744 s  ClockTime = 0 s

Time = 62s

smoothSolver:  Solving for Ux, Initial residual = 0.000161684, Final residual = 1.54736e-05, No Iterations 5
smoothSolver:  Solving for Uy, Initial residual = 0.0259289, Final residual = 0.00189552, No Iterations 4
Pressure gradient source: uncorrected Ubar = 1.00001, pressure gradient = 0.0266659
GAMG:  Solving for p, Initial residual = 0.0193934, Final residual = 0.000951017, No Iterations 5
time step continuity errors : sum local = 1.39482e-08, global = 5.06772e-18, cumulative = 6.67998e-17
Pressure gradient source: uncorrected Ubar = 1, pressure gradient = 0.0268921
smoothSolver:  Solving for omega, Initial residual = 9.30524e-06, Final residual = 9.30524e-06, No Iterations 0
smoothSolver:  Solving for k, Initial residual = 0.0103845, Final residual = 0.000813405, No Iterations 5
ExecutionTime = 0.137771 s  ClockTime = 0 s

Time = 63s

smoothSolver:  Solving for Ux, Initial residual = 0.000157716, Final residual = 1.51695e-05, No Iterations 5
smoothSolver:  Solving for Uy, Initial residual = 0.0251843, Final residual = 0.00178971, No Iterations 4
Pressure gradient source: uncorrected Ubar = 1.00001, pressure gradient = 0.0266643
GAMG:  Solving for p, Initial residual = 0.0189446, Final residual = 0.00100496, No Iterations 5
time step continuity errors : sum local = 1.41216e-08, global = 2.47873e-18, cumulative = 6.92785e-17
Pressure gradient source: uncorrected Ubar = 1, pressure gradient = 0.0268794
smoothSolver:  Solving for omega, Initial residual = 9.30521e-06, Final residual = 9.30521e-06, No Iterations 0
smoothSolver:  Solving for k, Initial residual = 0.0103856, Final residual = 0.000864506, No Iterations 5
ExecutionTime = 0.139785 s  ClockTime = 0 s

Time = 64s

smoothSolver:  Solving for Ux, Initial residual = 0.00015383, Final residual = 1.48653e-05, No Iterations 5
smoothSolver:  Solving for Uy, Initial residual = 0.0248991, Final residual = 0.0017943, No Iterations 4
Pressure gradient source: uncorrected Ubar = 1.00001, pressure gradient = 0.0266629
GAMG:  Solving for p, Initial residual = 0.0185471, Final residual = 0.000986188, No Iterations 5
time step continuity errors : sum local = 1.34486e-08, global = -8.32554e-18, cumulative = 6.0953e-17
Pressure gradient source: uncorrected Ubar = 1, pressure gradient = 0.0268674
smoothSolver:  Solving for omega, Initial residual = 9.30518e-06, Final residual = 9.30518e-06, No Iterations 0
smoothSolver:  Solving for k, Initial residual = 0.0103687, Final residual = 0.000760531, No Iterations 5
ExecutionTime = 0.141731 s  ClockTime = 0 s

Time = 65s

smoothSolver:  Solving for Ux, Initial residual = 0.000150025, Final residual = 1.45618e-05, No Iterations 5
smoothSolver:  Solving for Uy, Initial residual = 0.024805, Final residual = 0.00178667, No Iterations 4
Pressure gradient source: uncorrected Ubar = 1.00001, pressure gradient = 0.0266614
GAMG:  Solving for p, Initial residual = 0.0180967, Final residual = 0.000973945, No Iterations 5
time step continuity errors : sum local = 1.29093e-08, global = -5.6073e-18, cumulative = 5.53457e-17
Pressure gradient source: uncorrected Ubar = 1, pressure gradient = 0.0268562
smoothSolver:  Solving for omega, Initial residual = 9.30514e-06, Final residual = 9.30514e-06, No Iterations 0
smoothSolver:  Solving for k, Initial residual = 0.0103719, Final residual = 0.000828879, No Iterations 5
ExecutionTime = 0.143667 s  ClockTime = 0 s

Time = 66s

smoothSolver:  Solving for Ux, Initial residual = 0.000146301, Final residual = 1.42602e-05, No Iterations 5
smoothSolver:  Solving for Uy, Initial residual = 0.0246125, Final residual = 0.00176566, No Iterations 4
Pressure gradient source: uncorrected Ubar = 1.00001, pressure gradient = 0.02666
GAMG:  Solving for p, Initial residual = 0.0176379, Final residual = 0.000899005, No Iterations 5
time step continuity errors : sum local = 1.17977e-08, global = -9.50811e-18, cumulative = 4.58376e-17
Pressure gradient source: uncorrected Ubar = 1, pressure gradient = 0.0268456
smoothSolver:  Solving for omega, Initial residual = 9.30509e-06, Final residual = 9.30509e-06, No Iterations 0
smoothSolver:  Solving for k, Initial residual = 0.0103594, Final residual = 0.000851276, No Iterations 5
ExecutionTime = 0.14571 s  ClockTime = 0 s

Time = 67s

smoothSolver:  Solving for Ux, Initial residual = 0.000142655, Final residual = 1.39663e-05, No Iterations 5
smoothSolver:  Solving for Uy, Initial residual = 0.0244828, Final residual = 0.00174511, No Iterations 4
Pressure gradient source: uncorrected Ubar = 1, pressure gradient = 0.0266587
GAMG:  Solving for p, Initial residual = 0.0172261, Final residual = 0.000910633, No Iterations 5
time step continuity errors : sum local = 1.16155e-08, global = -3.70002e-18, cumulative = 4.21375e-17
Pressure gradient source: uncorrected Ubar = 1, pressure gradient = 0.0268356
smoothSolver:  Solving for omega, Initial residual = 9.30505e-06, Final residual = 9.30505e-06, No Iterations 0
smoothSolver:  Solving for k, Initial residual = 0.0103644, Final residual = 0.000869345, No Iterations 5
ExecutionTime = 0.14767 s  ClockTime = 0 s

Time = 68s

smoothSolver:  Solving for Ux, Initial residual = 0.000139089, Final residual = 1.36743e-05, No Iterations 5
smoothSolver:  Solving for Uy, Initial residual = 0.0241752, Final residual = 0.00171393, No Iterations 4
Pressure gradient source: uncorrected Ubar = 1, pressure gradient = 0.0266574
GAMG:  Solving for p, Initial residual = 0.0168576, Final residual = 0.000936627, No Iterations 5
time step continuity errors : sum local = 1.15863e-08, global = 6.50934e-18, cumulative = 4.86469e-17
Pressure gradient source: uncorrected Ubar = 1, pressure gradient = 0.0268262
smoothSolver:  Solving for omega, Initial residual = 9.30499e-06, Final residual = 9.30499e-06, No Iterations 0
smoothSolver:  Solving for k, Initial residual = 0.0103637, Final residual = 0.000860296, No Iterations 5
ExecutionTime = 0.149991 s  ClockTime = 0 s

Time = 69s

smoothSolver:  Solving for Ux, Initial residual = 0.0001356, Final residual = 1.33846e-05, No Iterations 5
smoothSolver:  Solving for Uy, Initial residual = 0.0238995, Final residual = 0.00167966, No Iterations 4
Pressure gradient source: uncorrected Ubar = 1, pressure gradient = 0.0266561
GAMG:  Solving for p, Initial residual = 0.0165053, Final residual = 0.000952387, No Iterations 5
time step continuity errors : sum local = 1.14277e-08, global = 4.62409e-18, cumulative = 5.3271e-17
Pressure gradient source: uncorrected Ubar = 1, pressure gradient = 0.0268173
smoothSolver:  Solving for omega, Initial residual = 9.30494e-06, Final residual = 9.30494e-06, No Iterations 0
smoothSolver:  Solving for k, Initial residual = 0.0103299, Final residual = 0.000740667, No Iterations 5
ExecutionTime = 0.152084 s  ClockTime = 0 s

Time = 70s

smoothSolver:  Solving for Ux, Initial residual = 0.000132188, Final residual = 1.30992e-05, No Iterations 5
smoothSolver:  Solving for Uy, Initial residual = 0.0236517, Final residual = 0.0016491, No Iterations 4
Pressure gradient source: uncorrected Ubar = 1, pressure gradient = 0.0266549
GAMG:  Solving for p, Initial residual = 0.0161853, Final residual = 0.000973984, No Iterations 5
time step continuity errors : sum local = 1.13287e-08, global = -6.79677e-19, cumulative = 5.25913e-17
Pressure gradient source: uncorrected Ubar = 1, pressure gradient = 0.0268089
smoothSolver:  Solving for omega, Initial residual = 9.30489e-06, Final residual = 9.30489e-06, No Iterations 0
smoothSolver:  Solving for k, Initial residual = 0.0103097, Final residual = 0.000740357, No Iterations 5
ExecutionTime = 0.154131 s  ClockTime = 0 s

Time = 71s

smoothSolver:  Solving for Ux, Initial residual = 0.000128852, Final residual = 1.28162e-05, No Iterations 5
smoothSolver:  Solving for Uy, Initial residual = 0.0234197, Final residual = 0.00162211, No Iterations 4
Pressure gradient source: uncorrected Ubar = 1, pressure gradient = 0.0266537
GAMG:  Solving for p, Initial residual = 0.0158973, Final residual = 0.000996136, No Iterations 5
time step continuity errors : sum local = 1.12353e-08, global = 2.80917e-18, cumulative = 5.54005e-17
Pressure gradient source: uncorrected Ubar = 1, pressure gradient = 0.0268009
smoothSolver:  Solving for omega, Initial residual = 9.30483e-06, Final residual = 9.30483e-06, No Iterations 0
smoothSolver:  Solving for k, Initial residual = 0.010326, Final residual = 0.000847233, No Iterations 5
ExecutionTime = 0.156063 s  ClockTime = 0 s

Time = 72s

smoothSolver:  Solving for Ux, Initial residual = 0.000125591, Final residual = 1.25357e-05, No Iterations 5
smoothSolver:  Solving for Uy, Initial residual = 0.0231783, Final residual = 0.00159596, No Iterations 4
Pressure gradient source: uncorrected Ubar = 1, pressure gradient = 0.0266525
GAMG:  Solving for p, Initial residual = 0.0156618, Final residual = 0.00102137, No Iterations 5
time step continuity errors : sum local = 1.11717e-08, global = -3.51719e-18, cumulative = 5.18833e-17
Pressure gradient source: uncorrected Ubar = 1, pressure gradient = 0.0267934
smoothSolver:  Solving for omega, Initial residual = 9.30477e-06, Final residual = 9.30477e-06, No Iterations 0
smoothSolver:  Solving for k, Initial residual = 0.0103272, Final residual = 0.000873497, No Iterations 5
ExecutionTime = 0.157998 s  ClockTime = 0 s

Time = 73s

smoothSolver:  Solving for Ux, Initial residual = 0.000122418, Final residual = 8.06406e-06, No Iterations 6
smoothSolver:  Solving for Uy, Initial residual = 0.022939, Final residual = 0.00157019, No Iterations 4
Pressure gradient source: uncorrected Ubar = 1, pressure gradient = 0.026697
GAMG:  Solving for p, Initial residual = 0.0688353, Final residual = 0.00533732, No Iterations 4
time step continuity errors : sum local = 5.06393e-08, global = 3.4439e-18, cumulative = 5.53272e-17
Pressure gradient source: uncorrected Ubar = 1, pressure gradient = 0.0267899
smoothSolver:  Solving for omega, Initial residual = 9.30471e-06, Final residual = 9.30471e-06, No Iterations 0
smoothSolver:  Solving for k, Initial residual = 0.0103071, Final residual = 0.000774581, No Iterations 5
ExecutionTime = 0.159926 s  ClockTime = 0 s

Time = 74s

smoothSolver:  Solving for Ux, Initial residual = 0.000119126, Final residual = 7.8553e-06, No Iterations 6
smoothSolver:  Solving for Uy, Initial residual = 0.0759613, Final residual = 0.00438052, No Iterations 4
Pressure gradient source: uncorrected Ubar = 1, pressure gradient = 0.0266797
GAMG:  Solving for p, Initial residual = 0.063238, Final residual = 0.00519036, No Iterations 5
time step continuity errors : sum local = 4.54839e-08, global = -9.82413e-19, cumulative = 5.43448e-17
Pressure gradient source: uncorrected Ubar = 1, pressure gradient = 0.0267841
smoothSolver:  Solving for omega, Initial residual = 9.30465e-06, Final residual = 9.30465e-06, No Iterations 0
smoothSolver:  Solving for k, Initial residual = 0.0102761, Final residual = 0.000738982, No Iterations 5
ExecutionTime = 0.161866 s  ClockTime = 0 s

Time = 75s

smoothSolver:  Solving for Ux, Initial residual = 0.000115968, Final residual = 7.65995e-06, No Iterations 6
smoothSolver:  Solving for Uy, Initial residual = 0.107437, Final residual = 0.00542743, No Iterations 4
Pressure gradient source: uncorrected Ubar = 1, pressure gradient = 0.0266767
GAMG:  Solving for p, Initial residual = 0.0563059, Final residual = 0.00389778, No Iterations 5
time step continuity errors : sum local = 3.14516e-08, global = -1.36934e-18, cumulative = 5.29754e-17
Pressure gradient source: uncorrected Ubar = 1, pressure gradient = 0.0267784
smoothSolver:  Solving for omega, Initial residual = 9.30458e-06, Final residual = 9.30458e-06, No Iterations 0
smoothSolver:  Solving for k, Initial residual = 0.0102735, Final residual = 0.000795034, No Iterations 5
ExecutionTime = 0.163902 s  ClockTime = 0 s

Time = 76s

smoothSolver:  Solving for Ux, Initial residual = 0.000112895, Final residual = 7.47024e-06, No Iterations 6
smoothSolver:  Solving for Uy, Initial residual = 0.112142, Final residual = 0.00596978, No Iterations 4
Pressure gradient source: uncorrected Ubar = 1, pressure gradient = 0.0266737
GAMG:  Solving for p, Initial residual = 0.0477857, Final residual = 0.00307057, No Iterations 5
time step continuity errors : sum local = 2.14029e-08, global = 1.52406e-17, cumulative = 6.82161e-17
Pressure gradient source: uncorrected Ubar = 1, pressure gradient = 0.0267728
smoothSolver:  Solving for omega, Initial residual = 9.3045e-06, Final residual = 9.3045e-06, No Iterations 0
smoothSolver:  Solving for k, Initial residual = 0.0102474, Final residual = 0.000704879, No Iterations 5
ExecutionTime = 0.166128 s  ClockTime = 0 s

Time = 77s

smoothSolver:  Solving for Ux, Initial residual = 0.000109906, Final residual = 7.28563e-06, No Iterations 6
smoothSolver:  Solving for Uy, Initial residual = 0.104933, Final residual = 0.00576405, No Iterations 4
Pressure gradient source: uncorrected Ubar = 1, pressure gradient = 0.0266713
GAMG:  Solving for p, Initial residual = 0.0399122, Final residual = 0.00219537, No Iterations 6
time step continuity errors : sum local = 1.48834e-08, global = -3.10751e-18, cumulative = 6.51086e-17
Pressure gradient source: uncorrected Ubar = 1, pressure gradient = 0.0267672
smoothSolver:  Solving for omega, Initial residual = 9.30445e-06, Final residual = 9.30445e-06, No Iterations 0
smoothSolver:  Solving for k, Initial residual = 0.0102694, Final residual = 0.000880564, No Iterations 5
ExecutionTime = 0.168314 s  ClockTime = 0 s

Time = 78s

smoothSolver:  Solving for Ux, Initial residual = 0.000106997, Final residual = 7.10645e-06, No Iterations 6
smoothSolver:  Solving for Uy, Initial residual = 0.0834407, Final residual = 0.00518173, No Iterations 4
Pressure gradient source: uncorrected Ubar = 1, pressure gradient = 0.0266691
GAMG:  Solving for p, Initial residual = 0.0334887, Final residual = 0.00303446, No Iterations 5
time step continuity errors : sum local = 1.82217e-08, global = -5.68164e-18, cumulative = 5.94269e-17
Pressure gradient source: uncorrected Ubar = 1, pressure gradient = 0.0267619
smoothSolver:  Solving for omega, Initial residual = 9.30436e-06, Final residual = 9.30436e-06, No Iterations 0
smoothSolver:  Solving for k, Initial residual = 0.0102328, Final residual = 0.000698774, No Iterations 5
ExecutionTime = 0.170408 s  ClockTime = 0 s

Time = 79s

smoothSolver:  Solving for Ux, Initial residual = 0.000104165, Final residual = 6.93248e-06, No Iterations 6
smoothSolver:  Solving for Uy, Initial residual = 0.06439, Final residual = 0.00497511, No Iterations 4
Pressure gradient source: uncorrected Ubar = 1, pressure gradient = 0.0266672
GAMG:  Solving for p, Initial residual = 0.0277125, Final residual = 0.00235823, No Iterations 5
time step continuity errors : sum local = 1.3213e-08, global = -6.11891e-18, cumulative = 5.3308e-17
Pressure gradient source: uncorrected Ubar = 1, pressure gradient = 0.0267567
smoothSolver:  Solving for omega, Initial residual = 9.3043e-06, Final residual = 9.3043e-06, No Iterations 0
smoothSolver:  Solving for k, Initial residual = 0.0102153, Final residual = 0.000738008, No Iterations 5
ExecutionTime = 0.1724 s  ClockTime = 0 s

Time = 80s

smoothSolver:  Solving for Ux, Initial residual = 0.000101406, Final residual = 6.76215e-06, No Iterations 6
smoothSolver:  Solving for Uy, Initial residual = 0.0472389, Final residual = 0.00444415, No Iterations 4
Pressure gradient source: uncorrected Ubar = 1, pressure gradient = 0.0266654
GAMG:  Solving for p, Initial residual = 0.0231812, Final residual = 0.00222614, No Iterations 5
time step continuity errors : sum local = 1.29111e-08, global = 6.2459e-18, cumulative = 5.95539e-17
Pressure gradient source: uncorrected Ubar = 1, pressure gradient = 0.0267517
smoothSolver:  Solving for omega, Initial residual = 9.30425e-06, Final residual = 9.30425e-06, No Iterations 0
smoothSolver:  Solving for k, Initial residual = 0.0102114, Final residual = 0.000751145, No Iterations 5
ExecutionTime = 0.174384 s  ClockTime = 0 s

Time = 81s

smoothSolver:  Solving for Ux, Initial residual = 9.8718e-05, Final residual = 6.59535e-06, No Iterations 6
smoothSolver:  Solving for Uy, Initial residual = 0.0384418, Final residual = 0.00371213, No Iterations 4
Pressure gradient source: uncorrected Ubar = 1, pressure gradient = 0.0266637
GAMG:  Solving for p, Initial residual = 0.0199198, Final residual = 0.00170846, No Iterations 5
time step continuity errors : sum local = 9.48457e-09, global = -1.14648e-18, cumulative = 5.84074e-17
Pressure gradient source: uncorrected Ubar = 1, pressure gradient = 0.0267469
smoothSolver:  Solving for omega, Initial residual = 9.30418e-06, Final residual = 9.30418e-06, No Iterations 0
smoothSolver:  Solving for k, Initial residual = 0.0102036, Final residual = 0.000767506, No Iterations 5
ExecutionTime = 0.176318 s  ClockTime = 0 s

Time = 82s

smoothSolver:  Solving for Ux, Initial residual = 9.60984e-05, Final residual = 9.76883e-06, No Iterations 5
smoothSolver:  Solving for Uy, Initial residual = 0.0322016, Final residual = 0.00316175, No Iterations 4
Pressure gradient source: uncorrected Ubar = 1, pressure gradient = 0.0266296
GAMG:  Solving for p, Initial residual = 0.0659738, Final residual = 0.00231549, No Iterations 4
time step continuity errors : sum local = 1.21346e-08, global = -5.0562e-18, cumulative = 5.33512e-17
Pressure gradient source: uncorrected Ubar = 1, pressure gradient = 0.0267396
smoothSolver:  Solving for omega, Initial residual = 9.30411e-06, Final residual = 9.30411e-06, No Iterations 0
smoothSolver:  Solving for k, Initial residual = 0.0102063, Final residual = 0.000808945, No Iterations 5
ExecutionTime = 0.178263 s  ClockTime = 0 s

Time = 83s

smoothSolver:  Solving for Ux, Initial residual = 9.3721e-05, Final residual = 9.55669e-06, No Iterations 5
smoothSolver:  Solving for Uy, Initial residual = 0.0617042, Final residual = 0.00433366, No Iterations 4
Pressure gradient source: uncorrected Ubar = 1, pressure gradient = 0.0266391
GAMG:  Solving for p, Initial residual = 0.0524319, Final residual = 0.0018751, No Iterations 4
time step continuity errors : sum local = 1.06109e-08, global = -8.18892e-18, cumulative = 4.51623e-17
Pressure gradient source: uncorrected Ubar = 1, pressure gradient = 0.0267343
smoothSolver:  Solving for omega, Initial residual = 9.30405e-06, Final residual = 9.30405e-06, No Iterations 0
smoothSolver:  Solving for k, Initial residual = 0.0102031, Final residual = 0.000824034, No Iterations 5
ExecutionTime = 0.180274 s  ClockTime = 0 s

Time = 84s

smoothSolver:  Solving for Ux, Initial residual = 9.13596e-05, Final residual = 9.33884e-06, No Iterations 5
smoothSolver:  Solving for Uy, Initial residual = 0.0704231, Final residual = 0.00469402, No Iterations 4
Pressure gradient source: uncorrected Ubar = 1, pressure gradient = 0.0266389
GAMG:  Solving for p, Initial residual = 0.0373273, Final residual = 0.00137765, No Iterations 4
time step continuity errors : sum local = 8.16742e-09, global = -2.69785e-18, cumulative = 4.24645e-17
Pressure gradient source: uncorrected Ubar = 1, pressure gradient = 0.0267295
smoothSolver:  Solving for omega, Initial residual = 9.30398e-06, Final residual = 9.30398e-06, No Iterations 0
smoothSolver:  Solving for k, Initial residual = 0.0101908, Final residual = 0.000795049, No Iterations 5
ExecutionTime = 0.182394 s  ClockTime = 0 s

Time = 85s

smoothSolver:  Solving for Ux, Initial residual = 8.90466e-05, Final residual = 9.12287e-06, No Iterations 5
smoothSolver:  Solving for Uy, Initial residual = 0.0593265, Final residual = 0.00395292, No Iterations 4
Pressure gradient source: uncorrected Ubar = 1, pressure gradient = 0.0266389
GAMG:  Solving for p, Initial residual = 0.0239303, Final residual = 0.00137666, No Iterations 4
time step continuity errors : sum local = 7.99486e-09, global = -4.99657e-18, cumulative = 3.74679e-17
Pressure gradient source: uncorrected Ubar = 1, pressure gradient = 0.0267251
smoothSolver:  Solving for omega, Initial residual = 9.30392e-06, Final residual = 9.30392e-06, No Iterations 0
smoothSolver:  Solving for k, Initial residual = 0.0101629, Final residual = 0.000687385, No Iterations 5
ExecutionTime = 0.184392 s  ClockTime = 0 s

Time = 86s

smoothSolver:  Solving for Ux, Initial residual = 8.67806e-05, Final residual = 8.9093e-06, No Iterations 5
smoothSolver:  Solving for Uy, Initial residual = 0.0430435, Final residual = 0.00300481, No Iterations 4
Pressure gradient source: uncorrected Ubar = 1, pressure gradient = 0.0266386
GAMG:  Solving for p, Initial residual = 0.0138327, Final residual = 0.000938347, No Iterations 5
time step continuity errors : sum local = 5.64996e-09, global = 3.36771e-18, cumulative = 4.08356e-17
Pressure gradient source: uncorrected Ubar = 1, pressure gradient = 0.0267209
smoothSolver:  Solving for omega, Initial residual = 9.30386e-06, Final residual = 9.30386e-06, No Iterations 0
smoothSolver:  Solving for k, Initial residual = 0.0101739, Final residual = 0.00080545, No Iterations 5
ExecutionTime = 0.186442 s  ClockTime = 0 s

Time = 87s

smoothSolver:  Solving for Ux, Initial residual = 8.45623e-05, Final residual = 8.69836e-06, No Iterations 5
smoothSolver:  Solving for Uy, Initial residual = 0.0287333, Final residual = 0.00235557, No Iterations 4
Pressure gradient source: uncorrected Ubar = 1, pressure gradient = 0.0266381
GAMG:  Solving for p, Initial residual = 0.00855079, Final residual = 0.000446646, No Iterations 5
time step continuity errors : sum local = 2.9372e-09, global = -2.46726e-18, cumulative = 3.83684e-17
Pressure gradient source: uncorrected Ubar = 1, pressure gradient = 0.026717
smoothSolver:  Solving for omega, Initial residual = 9.30379e-06, Final residual = 9.30379e-06, No Iterations 0
smoothSolver:  Solving for k, Initial residual = 0.0101864, Final residual = 0.000869942, No Iterations 5
ExecutionTime = 0.18849 s  ClockTime = 0 s

Time = 88s

smoothSolver:  Solving for Ux, Initial residual = 8.23921e-05, Final residual = 8.49044e-06, No Iterations 5
smoothSolver:  Solving for Uy, Initial residual = 0.0218709, Final residual = 0.00188902, No Iterations 4
Pressure gradient source: uncorrected Ubar = 1, pressure gradient = 0.0266376
GAMG:  Solving for p, Initial residual = 0.0103948, Final residual = 0.000634824, No Iterations 5
time step continuity errors : sum local = 3.89774e-09, global = 7.21213e-18, cumulative = 4.55805e-17
Pressure gradient source: uncorrected Ubar = 1, pressure gradient = 0.0267133
smoothSolver:  Solving for omega, Initial residual = 9.30373e-06, Final residual = 9.30373e-06, No Iterations 0
smoothSolver:  Solving for k, Initial residual = 0.0101787, Final residual = 0.000814893, No Iterations 5
ExecutionTime = 0.190509 s  ClockTime = 0 s

Time = 89s

smoothSolver:  Solving for Ux, Initial residual = 8.02702e-05, Final residual = 8.2858e-06, No Iterations 5
smoothSolver:  Solving for Uy, Initial residual = 0.0191305, Final residual = 0.0016285, No Iterations 4
Pressure gradient source: uncorrected Ubar = 1, pressure gradient = 0.026637
GAMG:  Solving for p, Initial residual = 0.0124606, Final residual = 0.000470183, No Iterations 4
time step continuity errors : sum local = 2.90384e-09, global = -2.34467e-18, cumulative = 4.32358e-17
Pressure gradient source: uncorrected Ubar = 1, pressure gradient = 0.0267098
smoothSolver:  Solving for omega, Initial residual = 9.30367e-06, Final residual = 9.30367e-06, No Iterations 0
smoothSolver:  Solving for k, Initial residual = 0.0101649, Final residual = 0.000785046, No Iterations 5
ExecutionTime = 0.192447 s  ClockTime = 0 s

Time = 90s

smoothSolver:  Solving for Ux, Initial residual = 7.8205e-05, Final residual = 8.08464e-06, No Iterations 5
[...]
Pressure gradient source: uncorrected Ubar = 1, pressure gradient = 0.0266101
GAMG:  Solving for p, Initial residual = 0.0125079, Final residual = 0.000816175, No Iterations 5
time step continuity errors : sum local = 4.20548e-09, global = 9.29512e-18, cumulative = -2.40265e-18
Pressure gradient source: uncorrected Ubar = 1, pressure gradient = 0.0266214
smoothSolver:  Solving for omega, Initial residual = 4.01077e-06, Final residual = 4.01077e-06, No Iterations 0
smoothSolver:  Solving for k, Initial residual = 0.00408226, Final residual = 0.000347256, No Iterations 5
bounding k, min: 3.55351e-17 max: 2.1738e-11 average: 1.04615e-11
ExecutionTime = 0.310019 s  ClockTime = 0 s

Time = 146s

smoothSolver:  Solving for Ux, Initial residual = 2.11696e-05, Final residual = 8.26761e-06, No Iterations 2
smoothSolver:  Solving for Uy, Initial residual = 0.0138857, Final residual = 0.00138372, No Iterations 3
Pressure gradient source: uncorrected Ubar = 1, pressure gradient = 0.0266102
GAMG:  Solving for p, Initial residual = 0.0128329, Final residual = 0.00104628, No Iterations 4
time step continuity errors : sum local = 4.90342e-09, global = -4.71234e-19, cumulative = -2.87388e-18
Pressure gradient source: uncorrected Ubar = 1, pressure gradient = 0.0266211
smoothSolver:  Solving for omega, Initial residual = 4.56006e-06, Final residual = 4.56006e-06, No Iterations 0
smoothSolver:  Solving for k, Initial residual = 0.00406965, Final residual = 0.000339455, No Iterations 5
bounding k, min: 3.46075e-17 max: 2.03697e-11 average: 9.84808e-12
ExecutionTime = 0.312052 s  ClockTime = 0 s

Time = 147s

smoothSolver:  Solving for Ux, Initial residual = 2.0761e-05, Final residual = 8.11375e-06, No Iterations 2
smoothSolver:  Solving for Uy, Initial residual = 0.0151928, Final residual = 0.000755872, No Iterations 4
Pressure gradient source: uncorrected Ubar = 1, pressure gradient = 0.0266103
GAMG:  Solving for p, Initial residual = 0.0130191, Final residual = 0.000765083, No Iterations 4
time step continuity errors : sum local = 3.55673e-09, global = 4.67351e-18, cumulative = 1.79963e-18
Pressure gradient source: uncorrected Ubar = 1, pressure gradient = 0.0266208
smoothSolver:  Solving for omega, Initial residual = 5.18774e-06, Final residual = 5.18774e-06, No Iterations 0
smoothSolver:  Solving for k, Initial residual = 0.00405363, Final residual = 0.00031892, No Iterations 5
bounding k, min: 3.37449e-17 max: 1.93055e-11 average: 9.28325e-12
ExecutionTime = 0.314269 s  ClockTime = 0 s

Time = 148s

smoothSolver:  Solving for Ux, Initial residual = 2.03589e-05, Final residual = 7.96184e-06, No Iterations 2
smoothSolver:  Solving for Uy, Initial residual = 0.0161027, Final residual = 0.000807765, No Iterations 4
Pressure gradient source: uncorrected Ubar = 1, pressure gradient = 0.0266103
GAMG:  Solving for p, Initial residual = 0.0126809, Final residual = 0.000605257, No Iterations 4
time step continuity errors : sum local = 2.74133e-09, global = -1.08246e-17, cumulative = -9.02492e-18
Pressure gradient source: uncorrected Ubar = 1, pressure gradient = 0.0266206
smoothSolver:  Solving for omega, Initial residual = 5.77443e-06, Final residual = 5.77443e-06, No Iterations 0
smoothSolver:  Solving for k, Initial residual = 0.00405371, Final residual = 0.000358613, No Iterations 5
bounding k, min: 3.29489e-17 max: 1.82535e-11 average: 8.73245e-12
ExecutionTime = 0.316418 s  ClockTime = 0 s

Time = 149s

smoothSolver:  Solving for Ux, Initial residual = 1.99637e-05, Final residual = 7.812e-06, No Iterations 2
smoothSolver:  Solving for Uy, Initial residual = 0.0164286, Final residual = 0.000844572, No Iterations 4
Pressure gradient source: uncorrected Ubar = 1, pressure gradient = 0.0266104
GAMG:  Solving for p, Initial residual = 0.0122111, Final residual = 0.000702271, No Iterations 4
time step continuity errors : sum local = 3.00418e-09, global = -5.84309e-18, cumulative = -1.4868e-17
Pressure gradient source: uncorrected Ubar = 1, pressure gradient = 0.0266203
smoothSolver:  Solving for omega, Initial residual = 6.2777e-06, Final residual = 6.2777e-06, No Iterations 0
smoothSolver:  Solving for k, Initial residual = 0.00404341, Final residual = 0.00034027, No Iterations 5
bounding k, min: 3.22166e-17 max: 1.71633e-11 average: 8.21837e-12
ExecutionTime = 0.31862 s  ClockTime = 0 s

Time = 150s

smoothSolver:  Solving for Ux, Initial residual = 1.95751e-05, Final residual = 7.66431e-06, No Iterations 2
smoothSolver:  Solving for Uy, Initial residual = 0.0164561, Final residual = 0.000884959, No Iterations 4
Pressure gradient source: uncorrected Ubar = 1, pressure gradient = 0.0266105
GAMG:  Solving for p, Initial residual = 0.0118394, Final residual = 0.000998954, No Iterations 4
time step continuity errors : sum local = 4.23226e-09, global = 9.31194e-19, cumulative = -1.39368e-17
Pressure gradient source: uncorrected Ubar = 1, pressure gradient = 0.0266201
smoothSolver:  Solving for omega, Initial residual = 6.70858e-06, Final residual = 6.70858e-06, No Iterations 0
smoothSolver:  Solving for k, Initial residual = 0.00404854, Final residual = 0.000402099, No Iterations 5
bounding k, min: 3.15431e-17 max: 1.60686e-11 average: 7.71762e-12
ExecutionTime = 0.320695 s  ClockTime = 0 s

Time = 151s

smoothSolver:  Solving for Ux, Initial residual = 1.91939e-05, Final residual = 7.51882e-06, No Iterations 2
smoothSolver:  Solving for Uy, Initial residual = 0.0162177, Final residual = 0.000898853, No Iterations 4
Pressure gradient source: uncorrected Ubar = 1, pressure gradient = 0.0266106
GAMG:  Solving for p, Initial residual = 0.0115035, Final residual = 0.000854032, No Iterations 5
time step continuity errors : sum local = 3.53187e-09, global = -3.90242e-18, cumulative = -1.78392e-17
Pressure gradient source: uncorrected Ubar = 1, pressure gradient = 0.0266199
smoothSolver:  Solving for omega, Initial residual = 7.07738e-06, Final residual = 7.07738e-06, No Iterations 0
smoothSolver:  Solving for k, Initial residual = 0.0040191, Final residual = 0.000295613, No Iterations 5
bounding k, min: 3.09232e-17 max: 1.52476e-11 average: 7.28583e-12
ExecutionTime = 0.322797 s  ClockTime = 0 s

Time = 152s

smoothSolver:  Solving for Ux, Initial residual = 1.88204e-05, Final residual = 7.37558e-06, No Iterations 2
smoothSolver:  Solving for Uy, Initial residual = 0.0162078, Final residual = 0.000899242, No Iterations 4
Pressure gradient source: uncorrected Ubar = 1, pressure gradient = 0.0266107
GAMG:  Solving for p, Initial residual = 0.0112631, Final residual = 0.000740818, No Iterations 5
time step continuity errors : sum local = 3.08922e-09, global = -7.38033e-18, cumulative = -2.52196e-17
Pressure gradient source: uncorrected Ubar = 1, pressure gradient = 0.0266197
smoothSolver:  Solving for omega, Initial residual = 7.39321e-06, Final residual = 7.39321e-06, No Iterations 0
smoothSolver:  Solving for k, Initial residual = 0.00402593, Final residual = 0.000344354, No Iterations 5
bounding k, min: 3.03516e-17 max: 1.43977e-11 average: 6.85631e-12
ExecutionTime = 0.324845 s  ClockTime = 0 s

Time = 153s

smoothSolver:  Solving for Ux, Initial residual = 1.84536e-05, Final residual = 7.23488e-06, No Iterations 2
smoothSolver:  Solving for Uy, Initial residual = 0.0161225, Final residual = 0.000941069, No Iterations 4
Pressure gradient source: uncorrected Ubar = 1, pressure gradient = 0.0266107
GAMG:  Solving for p, Initial residual = 0.0111713, Final residual = 0.0009052, No Iterations 5
time step continuity errors : sum local = 3.75769e-09, global = -4.52548e-18, cumulative = -2.97451e-17
Pressure gradient source: uncorrected Ubar = 1, pressure gradient = 0.0266195
smoothSolver:  Solving for omega, Initial residual = 7.66431e-06, Final residual = 7.66431e-06, No Iterations 0
smoothSolver:  Solving for k, Initial residual = 0.0040283, Final residual = 0.000384037, No Iterations 5
bounding k, min: 2.98239e-17 max: 1.34342e-11 average: 6.44743e-12
ExecutionTime = 0.326833 s  ClockTime = 0 s

Time = 154s

smoothSolver:  Solving for Ux, Initial residual = 1.80939e-05, Final residual = 7.09645e-06, No Iterations 2
smoothSolver:  Solving for Uy, Initial residual = 0.0161342, Final residual = 0.000959226, No Iterations 4
Pressure gradient source: uncorrected Ubar = 1, pressure gradient = 0.0266108
GAMG:  Solving for p, Initial residual = 0.0111265, Final residual = 0.000913476, No Iterations 5
time step continuity errors : sum local = 3.58702e-09, global = 1.79895e-17, cumulative = -1.17555e-17
Pressure gradient source: uncorrected Ubar = 1, pressure gradient = 0.0266194
smoothSolver:  Solving for omega, Initial residual = 7.89724e-06, Final residual = 7.89724e-06, No Iterations 0
smoothSolver:  Solving for k, Initial residual = 0.00403192, Final residual = 0.000261307, No Iterations 6
bounding k, min: 2.9324e-17 max: 1.25423e-11 average: 6.0371e-12
ExecutionTime = 0.329047 s  ClockTime = 0 s

Time = 155s

smoothSolver:  Solving for Ux, Initial residual = 1.77407e-05, Final residual = 6.96033e-06, No Iterations 2
smoothSolver:  Solving for Uy, Initial residual = 0.0159722, Final residual = 0.000965194, No Iterations 4
Pressure gradient source: uncorrected Ubar = 1, pressure gradient = 0.0266109
GAMG:  Solving for p, Initial residual = 0.0109691, Final residual = 0.000940388, No Iterations 5
time step continuity errors : sum local = 3.60111e-09, global = 3.18139e-18, cumulative = -8.57413e-18
Pressure gradient source: uncorrected Ubar = 1, pressure gradient = 0.0266192
smoothSolver:  Solving for omega, Initial residual = 8.10517e-06, Final residual = 8.10517e-06, No Iterations 0
smoothSolver:  Solving for k, Initial residual = 0.0040074, Final residual = 0.000308623, No Iterations 5
bounding k, min: 2.88685e-17 max: 1.19599e-11 average: 5.69323e-12
ExecutionTime = 0.331202 s  ClockTime = 0 s

Time = 156s

smoothSolver:  Solving for Ux, Initial residual = 1.7394e-05, Final residual = 6.82651e-06, No Iterations 2
smoothSolver:  Solving for Uy, Initial residual = 0.0158797, Final residual = 0.000968399, No Iterations 4
Pressure gradient source: uncorrected Ubar = 1, pressure gradient = 0.0266109
GAMG:  Solving for p, Initial residual = 0.0108704, Final residual = 0.000962489, No Iterations 5
time step continuity errors : sum local = 3.59431e-09, global = 3.90139e-19, cumulative = -8.18399e-18
Pressure gradient source: uncorrected Ubar = 1, pressure gradient = 0.026619
smoothSolver:  Solving for omega, Initial residual = 8.27734e-06, Final residual = 8.27734e-06, No Iterations 0
smoothSolver:  Solving for k, Initial residual = 0.00399129, Final residual = 0.000282926, No Iterations 5
bounding k, min: 2.84489e-17 max: 1.12869e-11 average: 5.38099e-12
ExecutionTime = 0.333417 s  ClockTime = 0 s

Time = 157s

smoothSolver:  Solving for Ux, Initial residual = 1.70537e-05, Final residual = 6.69498e-06, No Iterations 2
smoothSolver:  Solving for Uy, Initial residual = 0.0158018, Final residual = 0.000968737, No Iterations 4
Pressure gradient source: uncorrected Ubar = 1, pressure gradient = 0.026611
GAMG:  Solving for p, Initial residual = 0.0107931, Final residual = 0.000973158, No Iterations 5
time step continuity errors : sum local = 3.54942e-09, global = -6.29273e-18, cumulative = -1.44767e-17
Pressure gradient source: uncorrected Ubar = 1, pressure gradient = 0.0266189
smoothSolver:  Solving for omega, Initial residual = 8.42554e-06, Final residual = 8.42554e-06, No Iterations 0
smoothSolver:  Solving for k, Initial residual = 0.00400534, Final residual = 0.00036296, No Iterations 5
bounding k, min: 2.80987e-17 max: 1.05614e-11 average: 5.0686e-12
ExecutionTime = 0.335663 s  ClockTime = 0 s

Time = 158s

smoothSolver:  Solving for Ux, Initial residual = 1.67198e-05, Final residual = 6.56575e-06, No Iterations 2
smoothSolver:  Solving for Uy, Initial residual = 0.0157244, Final residual = 0.000967418, No Iterations 4
Pressure gradient source: uncorrected Ubar = 1, pressure gradient = 0.026611
GAMG:  Solving for p, Initial residual = 0.0107371, Final residual = 0.000977417, No Iterations 5
time step continuity errors : sum local = 3.48563e-09, global = 8.43977e-18, cumulative = -6.03695e-18
Pressure gradient source: uncorrected Ubar = 1, pressure gradient = 0.0266187
smoothSolver:  Solving for omega, Initial residual = 8.55433e-06, Final residual = 8.55433e-06, No Iterations 0
smoothSolver:  Solving for k, Initial residual = 0.00401544, Final residual = 0.000393331, No Iterations 5
bounding k, min: 2.77782e-17 max: 9.89796e-12 average: 4.76032e-12
ExecutionTime = 0.337765 s  ClockTime = 0 s

Time = 159s

smoothSolver:  Solving for Ux, Initial residual = 1.6392e-05, Final residual = 9.98523e-06, No Iterations 1
smoothSolver:  Solving for Uy, Initial residual = 0.0156546, Final residual = 0.000965398, No Iterations 4
Pressure gradient source: uncorrected Ubar = 1, pressure gradient = 0.026604
GAMG:  Solving for p, Initial residual = 0.0192755, Final residual = 0.00182493, No Iterations 5
time step continuity errors : sum local = 6.88777e-09, global = -5.58269e-18, cumulative = -1.16196e-17
Pressure gradient source: uncorrected Ubar = 1, pressure gradient = 0.026614
smoothSolver:  Solving for omega, Initial residual = 8.66654e-06, Final residual = 8.66654e-06, No Iterations 0
smoothSolver:  Solving for k, Initial residual = 0.00400288, Final residual = 0.000353312, No Iterations 5
bounding k, min: 2.74799e-17 max: 9.4081e-12 average: 4.47946e-12
ExecutionTime = 0.339879 s  ClockTime = 0 s

Time = 160s

smoothSolver:  Solving for Ux, Initial residual = 1.62515e-05, Final residual = 9.9485e-06, No Iterations 1
smoothSolver:  Solving for Uy, Initial residual = 0.0224828, Final residual = 0.00119719, No Iterations 4
Pressure gradient source: uncorrected Ubar = 1, pressure gradient = 0.0266107
GAMG:  Solving for p, Initial residual = 0.0186764, Final residual = 0.00109195, No Iterations 7
time step continuity errors : sum local = 4.31504e-09, global = -2.00283e-18, cumulative = -1.36225e-17
Pressure gradient source: uncorrected Ubar = 1, pressure gradient = 0.026613
smoothSolver:  Solving for omega, Initial residual = 8.76459e-06, Final residual = 8.76459e-06, No Iterations 0
smoothSolver:  Solving for k, Initial residual = 0.00399118, Final residual = 0.000324494, No Iterations 5
bounding k, min: 2.72018e-17 max: 8.91897e-12 average: 4.22038e-12
ExecutionTime = 0.341977 s  ClockTime = 0 s

Time = 161s

smoothSolver:  Solving for Ux, Initial residual = 1.60543e-05, Final residual = 9.85494e-06, No Iterations 1
smoothSolver:  Solving for Uy, Initial residual = 0.0281322, Final residual = 0.00275781, No Iterations 3
Pressure gradient source: uncorrected Ubar = 1, pressure gradient = 0.0266111
GAMG:  Solving for p, Initial residual = 0.0197871, Final residual = 0.00192229, No Iterations 5
time step continuity errors : sum local = 7.69467e-09, global = 1.92615e-18, cumulative = -1.16963e-17
Pressure gradient source: uncorrected Ubar = 1, pressure gradient = 0.0266124
smoothSolver:  Solving for omega, Initial residual = 8.85089e-06, Final residual = 8.85089e-06, No Iterations 0
smoothSolver:  Solving for k, Initial residual = 0.00399559, Final residual = 0.000362705, No Iterations 5
bounding k, min: 2.69422e-17 max: 8.33393e-12 average: 3.97563e-12
ExecutionTime = 0.344083 s  ClockTime = 0 s

Time = 162s

smoothSolver:  Solving for Ux, Initial residual = 1.58533e-05, Final residual = 9.75087e-06, No Iterations 1
smoothSolver:  Solving for Uy, Initial residual = 0.0295373, Final residual = 0.00292419, No Iterations 3
Pressure gradient source: uncorrected Ubar = 1, pressure gradient = 0.0266112
GAMG:  Solving for p, Initial residual = 0.018862, Final residual = 0.00133321, No Iterations 6
time step continuity errors : sum local = 5.42046e-09, global = 1.06977e-17, cumulative = -9.98614e-19
Pressure gradient source: uncorrected Ubar = 1, pressure gradient = 0.026612
smoothSolver:  Solving for omega, Initial residual = 8.92798e-06, Final residual = 8.92798e-06, No Iterations 0
smoothSolver:  Solving for k, Initial residual = 0.00398648, Final residual = 0.000305166, No Iterations 5
bounding k, min: 2.66997e-17 max: 7.90035e-12 average: 3.74966e-12
ExecutionTime = 0.346237 s  ClockTime = 0 s

Time = 163s

smoothSolver:  Solving for Ux, Initial residual = 1.56515e-05, Final residual = 9.64149e-06, No Iterations 1
smoothSolver:  Solving for Uy, Initial residual = 0.0246379, Final residual = 0.00224616, No Iterations 3
Pressure gradient source: uncorrected Ubar = 1, pressure gradient = 0.0266112
GAMG:  Solving for p, Initial residual = 0.0147714, Final residual = 0.00135611, No Iterations 4
time step continuity errors : sum local = 5.30265e-09, global = 5.92901e-18, cumulative = 4.9304e-18
Pressure gradient source: uncorrected Ubar = 1, pressure gradient = 0.0266117
smoothSolver:  Solving for omega, Initial residual = 8.99725e-06, Final residual = 8.99725e-06, No Iterations 0
smoothSolver:  Solving for k, Initial residual = 0.00400756, Final residual = 0.000259673, No Iterations 6
bounding k, min: 2.64667e-17 max: 7.36778e-12 average: 3.51209e-12
ExecutionTime = 0.348464 s  ClockTime = 0 s

Time = 164s

smoothSolver:  Solving for Ux, Initial residual = 1.54502e-05, Final residual = 9.52925e-06, No Iterations 1
smoothSolver:  Solving for Uy, Initial residual = 0.0191951, Final residual = 0.00172756, No Iterations 3
Pressure gradient source: uncorrected Ubar = 1, pressure gradient = 0.0266112
GAMG:  Solving for p, Initial residual = 0.010845, Final residual = 0.000921088, No Iterations 3
time step continuity errors : sum local = 3.66356e-09, global = 2.47585e-19, cumulative = 5.17798e-18
Pressure gradient source: uncorrected Ubar = 1, pressure gradient = 0.0266114
smoothSolver:  Solving for omega, Initial residual = 9.0634e-06, Final residual = 9.0634e-06, No Iterations 0
smoothSolver:  Solving for k, Initial residual = 0.00399445, Final residual = 0.000343926, No Iterations 5
bounding k, min: 2.62533e-17 max: 6.99505e-12 average: 3.30757e-12
ExecutionTime = 0.350634 s  ClockTime = 0 s

Time = 165s

smoothSolver:  Solving for Ux, Initial residual = 1.525e-05, Final residual = 9.41541e-06, No Iterations 1
smoothSolver:  Solving for Uy, Initial residual = 0.0127595, Final residual = 0.001124, No Iterations 3
Pressure gradient source: uncorrected Ubar = 1, pressure gradient = 0.0266112
GAMG:  Solving for p, Initial residual = 0.0083725, Final residual = 0.000562991, No Iterations 5
time step continuity errors : sum local = 2.23027e-09, global = 4.59596e-18, cumulative = 9.77394e-18
Pressure gradient source: uncorrected Ubar = 1, pressure gradient = 0.0266113
smoothSolver:  Solving for omega, Initial residual = 9.12166e-06, Final residual = 9.12166e-06, No Iterations 0
smoothSolver:  Solving for k, Initial residual = 0.00398728, Final residual = 0.000315587, No Iterations 5
bounding k, min: 2.60546e-17 max: 6.54178e-12 average: 3.11952e-12
ExecutionTime = 0.352808 s  ClockTime = 0 s

Time = 166s

smoothSolver:  Solving for Ux, Initial residual = 1.5051e-05, Final residual = 9.30071e-06, No Iterations 1
smoothSolver:  Solving for Uy, Initial residual = 0.00711149, Final residual = 0.000359118, No Iterations 4
Pressure gradient source: uncorrected Ubar = 1, pressure gradient = 0.0266112
GAMG:  Solving for p, Initial residual = 0.00740254, Final residual = 0.000620846, No Iterations 6
time step continuity errors : sum local = 2.5938e-09, global = -3.04823e-18, cumulative = 6.72572e-18
Pressure gradient source: uncorrected Ubar = 1, pressure gradient = 0.0266111
smoothSolver:  Solving for omega, Initial residual = 9.175e-06, Final residual = 9.175e-06, No Iterations 0
smoothSolver:  Solving for k, Initial residual = 0.0039902, Final residual = 0.000338985, No Iterations 5
bounding k, min: 2.58688e-17 max: 6.21148e-12 average: 2.93959e-12
ExecutionTime = 0.354911 s  ClockTime = 0 s


SIMPLE solution converged in 166 iterations

End

