/*---------------------------------------------------------------------------*\
  =========                 |
  \\      /  F ield         | OpenFOAM: The Open Source CFD Toolbox
   \\    /   O peration     | Website:  https://openfoam.org
    \\  /    A nd           | Version:  10
     \\/     M anipulation  |
\*---------------------------------------------------------------------------*/
Build  : 10-e450dce21ea5
Exec   : blockMesh
Date   : Feb 20 2023
Time   : 14:15:54
Host   : "w530-R9YK46P"
PID    : 18906
I/O    : uncollated
Case   : /home/jdmezazeron/gitDanielMezaZ/turbulenceVisualized/Data/SimulationFiles/K32_Re3739
nProcs : 1
sigFpe : Enabling floating point exception trapping (FOAM_SIGFPE).
fileModificationChecking : Monitoring run-time modified files using timeStampMaster (fileModificationSkew 10)
allowSystemOperations : Allowing user-supplied system call operations

// * * * * * * * * * * * * * * * * * * * * * * * * * * * * * * * * * * * * * //
Create time

Deleting polyMesh directory
    "/home/jdmezazeron/gitDanielMezaZ/turbulenceVisualized/Data/SimulationFiles/K32_Re3739/constant/polyMesh"
Reading "blockMeshDict"

Creating block mesh from
    "system/blockMeshDict"
Creating block edges
No non-planar block faces defined
Creating topology blocks
Creating topology patches

Creating block mesh topology

Check topology

	Basic statistics
		Number of internal faces : 0
		Number of boundary faces : 6
		Number of defined boundary faces : 6
		Number of undefined boundary faces : 0
	Checking patch -> block consistency

Creating block offsets
Creating merge list .

Creating polyMesh from blockMesh
Creating patches
Creating cells
Creating points with scale 1
    Block 0 cell size :
        i : 0.5
        j : 0.00461374 .. 0.018455
        k : 2

Detected cyclic patches; ordering boundary faces

Writing polyMesh
----------------
Mesh Information
----------------
  boundingBox: (-1 0 -1) (1 1 1)
  nPoints: 1010
  nCells: 400
  nFaces: 1704
  nInternalFaces: 696
----------------
Patches
----------------
  patch 0 (start: 696 size: 100) name: inlet
  patch 1 (start: 796 size: 100) name: outlet
  patch 2 (start: 896 size: 4) name: fixedWalls-bottom
  patch 3 (start: 900 size: 4) name: fixedWalls-top
  patch 4 (start: 904 size: 800) name: frontAndBack

End

/*---------------------------------------------------------------------------*\
  =========                 |
  \\      /  F ield         | OpenFOAM: The Open Source CFD Toolbox
   \\    /   O peration     | Website:  https://openfoam.org
    \\  /    A nd           | Version:  10
     \\/     M anipulation  |
\*---------------------------------------------------------------------------*/
Build  : 10-e450dce21ea5
Exec   : simpleFoam
Date   : Feb 20 2023
Time   : 14:15:54
Host   : "w530-R9YK46P"
PID    : 18907
I/O    : uncollated
Case   : /home/jdmezazeron/gitDanielMezaZ/turbulenceVisualized/Data/SimulationFiles/K32_Re3739
nProcs : 1
sigFpe : Enabling floating point exception trapping (FOAM_SIGFPE).
fileModificationChecking : Monitoring run-time modified files using timeStampMaster (fileModificationSkew 10)
allowSystemOperations : Allowing user-supplied system call operations

// * * * * * * * * * * * * * * * * * * * * * * * * * * * * * * * * * * * * * //
Create time

Create mesh for time = 0


SIMPLE: Convergence criteria found
        U: tolerance 0.0001
        p: tolerance 0.01
        omega: tolerance 0.0001

Reading field p

Reading field U

Reading/calculating face flux field phi

Selecting viscosity model Newtonian
Selecting turbulence model type RAS
Selecting RAS turbulence model kOmegaSST
Selecting patchDistMethod meshWave
RAS
{
    RASModel        kOmegaSST;
    turbulence      on;
    printCoeffs     on;
    alphaK1         0.85;
    alphaK2         1;
    alphaOmega1     0.5;
    alphaOmega2     0.856;
    gamma1          0.555556;
    gamma2          0.44;
    beta1           0.075;
    beta2           0.0828;
    betaStar        0.09;
    a1              0.31;
    b1              1;
    c1              10;
    F3              false;
}

No MRF models present

--> FOAM Warning : Creating fvModels from "system/fvOptions" rather than constant/fvModels
No fvModels present
--> FOAM Warning : Creating fvConstraints from "system/fvOptions"

Selecting finite volume constraint type meanVelocityForce
    Name: momentumSource
    - selecting all cells
    - selected 400 cell(s) with volume 4
    Initial pressure gradient = 0


Starting time loop

turbulenceFields stressComponents: storing fields:
    R

Time = 1s

smoothSolver:  Solving for Ux, Initial residual = 0, Final residual = 0, No Iterations 0
smoothSolver:  Solving for Uy, Initial residual = 0, Final residual = 0, No Iterations 0
Pressure gradient source: uncorrected Ubar = 0, pressure gradient = 1163.3
GAMG:  Solving for p, Initial residual = 0.999996, Final residual = 0.0970385, No Iterations 2
time step continuity errors : sum local = 1.02028e-16, global = -1.87331e-18, cumulative = -1.87331e-18
Pressure gradient source: uncorrected Ubar = 0.884653, pressure gradient = 134.182
smoothSolver:  Solving for omega, Initial residual = 0.239569, Final residual = 0.014475, No Iterations 3
smoothSolver:  Solving for k, Initial residual = 1, Final residual = 0.099097, No Iterations 3
ExecutionTime = 0.014165 s  ClockTime = 0 s

Time = 2s

smoothSolver:  Solving for Ux, Initial residual = 0.992398, Final residual = 0.094446, No Iterations 6
smoothSolver:  Solving for Uy, Initial residual = 1, Final residual = 0.073563, No Iterations 5
Pressure gradient source: uncorrected Ubar = 56.5025, pressure gradient = -996.615
GAMG:  Solving for p, Initial residual = 1, Final residual = 0.097785, No Iterations 15
time step continuity errors : sum local = 0.0490872, global = 2.7647e-18, cumulative = 8.91391e-19
Pressure gradient source: uncorrected Ubar = 8.21905, pressure gradient = -12.8972
smoothSolver:  Solving for omega, Initial residual = 0.178327, Final residual = 0.00196048, No Iterations 1
smoothSolver:  Solving for k, Initial residual = 0.931782, Final residual = 0.0482618, No Iterations 2
ExecutionTime = 0.017313 s  ClockTime = 0 s

Time = 3s

smoothSolver:  Solving for Ux, Initial residual = 0.405409, Final residual = 0.0330439, No Iterations 6
smoothSolver:  Solving for Uy, Initial residual = 0.625272, Final residual = 0.0294334, No Iterations 2
Pressure gradient source: uncorrected Ubar = -1.72057, pressure gradient = 96.5038
GAMG:  Solving for p, Initial residual = 0.228681, Final residual = 0.0208789, No Iterations 8
time step continuity errors : sum local = 0.0242185, global = -2.28767e-17, cumulative = -2.19853e-17
Pressure gradient source: uncorrected Ubar = 0.573794, pressure gradient = 4.24167
smoothSolver:  Solving for omega, Initial residual = 0.0150572, Final residual = 0.00116931, No Iterations 1
smoothSolver:  Solving for k, Initial residual = 0.534323, Final residual = 0.0450751, No Iterations 2
ExecutionTime = 0.019998 s  ClockTime = 0 s

Time = 4s

smoothSolver:  Solving for Ux, Initial residual = 0.178635, Final residual = 0.011588, No Iterations 5
smoothSolver:  Solving for Uy, Initial residual = 0.427505, Final residual = 0.034502, No Iterations 2
Pressure gradient source: uncorrected Ubar = 1.93762, pressure gradient = -23.1783
GAMG:  Solving for p, Initial residual = 0.162851, Final residual = 0.0146148, No Iterations 11
time step continuity errors : sum local = 0.0374549, global = 7.04731e-19, cumulative = -2.12805e-17
Pressure gradient source: uncorrected Ubar = 1.12309, pressure gradient = 0.641952
smoothSolver:  Solving for omega, Initial residual = 0.0109627, Final residual = 0.000638501, No Iterations 2
smoothSolver:  Solving for k, Initial residual = 0.673051, Final residual = 0.0409774, No Iterations 2
ExecutionTime = 0.022763 s  ClockTime = 0 s

Time = 5s

smoothSolver:  Solving for Ux, Initial residual = 0.138909, Final residual = 0.0127012, No Iterations 3
smoothSolver:  Solving for Uy, Initial residual = 0.42089, Final residual = 0.0137889, No Iterations 3
Pressure gradient source: uncorrected Ubar = 0.934336, pressure gradient = 2.7923
GAMG:  Solving for p, Initial residual = 0.241692, Final residual = 0.0174701, No Iterations 9
time step continuity errors : sum local = 0.0442477, global = 1.20841e-16, cumulative = 9.95606e-17
Pressure gradient source: uncorrected Ubar = 0.988924, pressure gradient = 1.00467
smoothSolver:  Solving for omega, Initial residual = 0.0238716, Final residual = 0.000894688, No Iterations 2
bounding omega, min: -0.168581 max: 8041.1 average: 156.686
smoothSolver:  Solving for k, Initial residual = 0.698071, Final residual = 0.00802888, No Iterations 2
ExecutionTime = 0.025588 s  ClockTime = 0 s

Time = 6s

smoothSolver:  Solving for Ux, Initial residual = 0.114031, Final residual = 0.00786941, No Iterations 3
smoothSolver:  Solving for Uy, Initial residual = 0.537003, Final residual = 0.0523101, No Iterations 2
Pressure gradient source: uncorrected Ubar = 0.918735, pressure gradient = 3.96266
GAMG:  Solving for p, Initial residual = 0.470255, Final residual = 0.0422499, No Iterations 13
time step continuity errors : sum local = 0.0813907, global = -1.47994e-17, cumulative = 8.47612e-17
Pressure gradient source: uncorrected Ubar = 0.993444, pressure gradient = 1.24329
smoothSolver:  Solving for omega, Initial residual = 0.0500188, Final residual = 0.0013286, No Iterations 2
bounding omega, min: -0.765845 max: 8041.1 average: 170.04
smoothSolver:  Solving for k, Initial residual = 0.405989, Final residual = 0.00617883, No Iterations 2
ExecutionTime = 0.028552 s  ClockTime = 0 s

Time = 7s

smoothSolver:  Solving for Ux, Initial residual = 0.0875181, Final residual = 0.00697258, No Iterations 3
smoothSolver:  Solving for Uy, Initial residual = 0.510456, Final residual = 0.0206596, No Iterations 3
Pressure gradient source: uncorrected Ubar = 0.895794, pressure gradient = 5.95124
GAMG:  Solving for p, Initial residual = 0.475486, Final residual = 0.0273359, No Iterations 9
time step continuity errors : sum local = 0.0799876, global = -1.09931e-16, cumulative = -2.51701e-17
Pressure gradient source: uncorrected Ubar = 0.991559, pressure gradient = 1.62463
smoothSolver:  Solving for omega, Initial residual = 0.0545973, Final residual = 0.00531957, No Iterations 1
smoothSolver:  Solving for k, Initial residual = 0.237705, Final residual = 0.00644136, No Iterations 2
ExecutionTime = 0.031221 s  ClockTime = 0 s

Time = 8s

smoothSolver:  Solving for Ux, Initial residual = 0.0874881, Final residual = 0.00696301, No Iterations 3
smoothSolver:  Solving for Uy, Initial residual = 0.42678, Final residual = 0.0148764, No Iterations 3
Pressure gradient source: uncorrected Ubar = 0.936967, pressure gradient = 4.95421
GAMG:  Solving for p, Initial residual = 0.359286, Final residual = 0.0350486, No Iterations 11
time step continuity errors : sum local = 0.13425, global = -5.421e-18, cumulative = -3.05911e-17
Pressure gradient source: uncorrected Ubar = 0.986621, pressure gradient = 2.33137
smoothSolver:  Solving for omega, Initial residual = 0.0420428, Final residual = 0.00117303, No Iterations 2
smoothSolver:  Solving for k, Initial residual = 0.212958, Final residual = 0.0131473, No Iterations 2
ExecutionTime = 0.034025 s  ClockTime = 0 s

Time = 9s

smoothSolver:  Solving for Ux, Initial residual = 0.0624388, Final residual = 0.00577213, No Iterations 3
smoothSolver:  Solving for Uy, Initial residual = 0.35674, Final residual = 0.0202474, No Iterations 3
Pressure gradient source: uncorrected Ubar = 0.945413, pressure gradient = 5.47809
GAMG:  Solving for p, Initial residual = 0.246333, Final residual = 0.0245908, No Iterations 8
time step continuity errors : sum local = 0.150873, global = 3.79471e-18, cumulative = -2.67964e-17
Pressure gradient source: uncorrected Ubar = 0.987914, pressure gradient = 3.0281
smoothSolver:  Solving for omega, Initial residual = 0.0253066, Final residual = 0.000930834, No Iterations 2
smoothSolver:  Solving for k, Initial residual = 0.171692, Final residual = 0.00709226, No Iterations 3
ExecutionTime = 0.036734 s  ClockTime = 0 s

Time = 10s

smoothSolver:  Solving for Ux, Initial residual = 0.0450128, Final residual = 0.00313907, No Iterations 4
smoothSolver:  Solving for Uy, Initial residual = 0.404557, Final residual = 0.0243789, No Iterations 3
Pressure gradient source: uncorrected Ubar = 0.921633, pressure gradient = 8.41884
GAMG:  Solving for p, Initial residual = 0.247397, Final residual = 0.0200646, No Iterations 8
time step continuity errors : sum local = 0.115167, global = -1.41997e-17, cumulative = -4.09961e-17
Pressure gradient source: uncorrected Ubar = 0.988174, pressure gradient = 3.84158
smoothSolver:  Solving for omega, Initial residual = 0.0228416, Final residual = 0.00157399, No Iterations 2
smoothSolver:  Solving for k, Initial residual = 0.127267, Final residual = 0.00849704, No Iterations 3
ExecutionTime = 0.039467 s  ClockTime = 0 s

Time = 11s

smoothSolver:  Solving for Ux, Initial residual = 0.0340846, Final residual = 0.00268657, No Iterations 4
smoothSolver:  Solving for Uy, Initial residual = 0.487222, Final residual = 0.0259845, No Iterations 3
Pressure gradient source: uncorrected Ubar = 0.993327, pressure gradient = 4.34684
GAMG:  Solving for p, Initial residual = 0.345115, Final residual = 0.0216477, No Iterations 4
time step continuity errors : sum local = 0.0660405, global = 3.83943e-17, cumulative = -2.60177e-18
Pressure gradient source: uncorrected Ubar = 1.00823, pressure gradient = 3.21853
smoothSolver:  Solving for omega, Initial residual = 0.0244468, Final residual = 0.00194581, No Iterations 2
smoothSolver:  Solving for k, Initial residual = 0.100654, Final residual = 0.00802179, No Iterations 3
ExecutionTime = 0.042003 s  ClockTime = 0 s

Time = 12s

smoothSolver:  Solving for Ux, Initial residual = 0.0256794, Final residual = 0.00216107, No Iterations 4
smoothSolver:  Solving for Uy, Initial residual = 0.5401, Final residual = 0.034914, No Iterations 3
Pressure gradient source: uncorrected Ubar = 0.936406, pressure gradient = 8.67304
GAMG:  Solving for p, Initial residual = 0.352035, Final residual = 0.0282364, No Iterations 8
time step continuity errors : sum local = 0.0902979, global = 3.09006e-17, cumulative = 2.82988e-17
Pressure gradient source: uncorrected Ubar = 0.997507, pressure gradient = 3.43238
smoothSolver:  Solving for omega, Initial residual = 0.0177991, Final residual = 0.000966717, No Iterations 3
smoothSolver:  Solving for k, Initial residual = 0.0821417, Final residual = 0.00477159, No Iterations 4
ExecutionTime = 0.044689 s  ClockTime = 0 s

Time = 13s

smoothSolver:  Solving for Ux, Initial residual = 0.0218396, Final residual = 0.00186682, No Iterations 4
smoothSolver:  Solving for Uy, Initial residual = 0.343873, Final residual = 0.0251355, No Iterations 3
Pressure gradient source: uncorrected Ubar = 0.963949, pressure gradient = 6.84543
GAMG:  Solving for p, Initial residual = 0.25026, Final residual = 0.019186, No Iterations 11
time step continuity errors : sum local = 0.0607436, global = 4.23381e-17, cumulative = 7.06369e-17
Pressure gradient source: uncorrected Ubar = 0.995333, pressure gradient = 3.87423
smoothSolver:  Solving for omega, Initial residual = 0.0166127, Final residual = 0.000931996, No Iterations 3
smoothSolver:  Solving for k, Initial residual = 0.0731328, Final residual = 0.00531506, No Iterations 4
ExecutionTime = 0.047512 s  ClockTime = 0 s

Time = 14s

smoothSolver:  Solving for Ux, Initial residual = 0.0189967, Final residual = 0.0017241, No Iterations 4
smoothSolver:  Solving for Uy, Initial residual = 0.366125, Final residual = 0.0272405, No Iterations 3
Pressure gradient source: uncorrected Ubar = 0.995213, pressure gradient = 4.40097
GAMG:  Solving for p, Initial residual = 0.180954, Final residual = 0.0136931, No Iterations 6
time step continuity errors : sum local = 0.0745077, global = -1.09728e-16, cumulative = -3.90911e-17
Pressure gradient source: uncorrected Ubar = 0.995844, pressure gradient = 4.33156
smoothSolver:  Solving for omega, Initial residual = 0.0137143, Final residual = 0.000969376, No Iterations 3
smoothSolver:  Solving for k, Initial residual = 0.0663676, Final residual = 0.00534881, No Iterations 4
ExecutionTime = 0.050105 s  ClockTime = 0 s

Time = 15s

smoothSolver:  Solving for Ux, Initial residual = 0.017153, Final residual = 0.00163248, No Iterations 4
smoothSolver:  Solving for Uy, Initial residual = 0.323249, Final residual = 0.0246097, No Iterations 3
Pressure gradient source: uncorrected Ubar = 1.02079, pressure gradient = 1.7862
GAMG:  Solving for p, Initial residual = 0.147332, Final residual = 0.0110736, No Iterations 11
time step continuity errors : sum local = 0.0814382, global = 7.47151e-17, cumulative = 3.5624e-17
Pressure gradient source: uncorrected Ubar = 0.999594, pressure gradient = 4.38124
smoothSolver:  Solving for omega, Initial residual = 0.0122488, Final residual = 0.00100784, No Iterations 3
smoothSolver:  Solving for k, Initial residual = 0.0586312, Final residual = 0.00510531, No Iterations 4
ExecutionTime = 0.052916 s  ClockTime = 0 s

Time = 16s

smoothSolver:  Solving for Ux, Initial residual = 0.0153088, Final residual = 0.000990116, No Iterations 5
smoothSolver:  Solving for Uy, Initial residual = 0.242498, Final residual = 0.0188033, No Iterations 3
Pressure gradient source: uncorrected Ubar = 1.01708, pressure gradient = 1.98737
GAMG:  Solving for p, Initial residual = 0.115027, Final residual = 0.010388, No Iterations 8
time step continuity errors : sum local = 0.0941465, global = -2.6563e-17, cumulative = 9.06103e-18
Pressure gradient source: uncorrected Ubar = 0.998506, pressure gradient = 4.59064
smoothSolver:  Solving for omega, Initial residual = 0.0106402, Final residual = 0.000657552, No Iterations 4
smoothSolver:  Solving for k, Initial residual = 0.0531544, Final residual = 0.00522582, No Iterations 4
ExecutionTime = 0.055623 s  ClockTime = 0 s

Time = 17s

smoothSolver:  Solving for Ux, Initial residual = 0.0138359, Final residual = 0.000952508, No Iterations 5
smoothSolver:  Solving for Uy, Initial residual = 0.182058, Final residual = 0.017198, No Iterations 3
Pressure gradient source: uncorrected Ubar = 1.02396, pressure gradient = 0.88178
GAMG:  Solving for p, Initial residual = 0.119839, Final residual = 0.0107806, No Iterations 8
time step continuity errors : sum local = 0.0815011, global = 6.77084e-17, cumulative = 7.67695e-17
Pressure gradient source: uncorrected Ubar = 1.00027, pressure gradient = 4.54875
smoothSolver:  Solving for omega, Initial residual = 0.00954377, Final residual = 0.000666265, No Iterations 4
smoothSolver:  Solving for k, Initial residual = 0.0502417, Final residual = 0.00348873, No Iterations 5
ExecutionTime = 0.058329 s  ClockTime = 0 s

Time = 18s

smoothSolver:  Solving for Ux, Initial residual = 0.0127595, Final residual = 0.00092053, No Iterations 5
smoothSolver:  Solving for Uy, Initial residual = 0.201459, Final residual = 0.018491, No Iterations 3
Pressure gradient source: uncorrected Ubar = 1.02146, pressure gradient = 0.979814
GAMG:  Solving for p, Initial residual = 0.109727, Final residual = 0.00959783, No Iterations 10
time step continuity errors : sum local = 0.0533736, global = 8.02174e-17, cumulative = 1.56987e-16
Pressure gradient source: uncorrected Ubar = 1.00277, pressure gradient = 4.08733
smoothSolver:  Solving for omega, Initial residual = 0.00911215, Final residual = 0.000713297, No Iterations 4
smoothSolver:  Solving for k, Initial residual = 0.0453994, Final residual = 0.00352225, No Iterations 5
ExecutionTime = 0.061108 s  ClockTime = 0 s

Time = 19s

smoothSolver:  Solving for Ux, Initial residual = 0.0118718, Final residual = 0.00087879, No Iterations 5
smoothSolver:  Solving for Uy, Initial residual = 0.196051, Final residual = 0.0105314, No Iterations 4
Pressure gradient source: uncorrected Ubar = 1.00345, pressure gradient = 3.48175
GAMG:  Solving for p, Initial residual = 0.113028, Final residual = 0.0108499, No Iterations 11
time step continuity errors : sum local = 0.0443666, global = 3.792e-17, cumulative = 1.94907e-16
Pressure gradient source: uncorrected Ubar = 1.00043, pressure gradient = 4.01119
smoothSolver:  Solving for omega, Initial residual = 0.00855584, Final residual = 0.000764074, No Iterations 4
smoothSolver:  Solving for k, Initial residual = 0.0403137, Final residual = 0.0032971, No Iterations 5
ExecutionTime = 0.063948 s  ClockTime = 0 s

Time = 20s

smoothSolver:  Solving for Ux, Initial residual = 0.0112706, Final residual = 0.00085287, No Iterations 5
smoothSolver:  Solving for Uy, Initial residual = 0.161536, Final residual = 0.0103506, No Iterations 4
Pressure gradient source: uncorrected Ubar = 1.00455, pressure gradient = 3.16529
GAMG:  Solving for p, Initial residual = 0.0792102, Final residual = 0.00687904, No Iterations 12
time step continuity errors : sum local = 0.0414127, global = 6.31548e-17, cumulative = 2.58062e-16
Pressure gradient source: uncorrected Ubar = 1.00113, pressure gradient = 3.8008
smoothSolver:  Solving for omega, Initial residual = 0.00835118, Final residual = 0.000779689, No Iterations 4
smoothSolver:  Solving for k, Initial residual = 0.0367988, Final residual = 0.00321192, No Iterations 5
ExecutionTime = 0.06685 s  ClockTime = 0 s

Time = 21s

smoothSolver:  Solving for Ux, Initial residual = 0.0107524, Final residual = 0.000825482, No Iterations 5
smoothSolver:  Solving for Uy, Initial residual = 0.161861, Final residual = 0.0105524, No Iterations 4
Pressure gradient source: uncorrected Ubar = 0.999672, pressure gradient = 3.86646
GAMG:  Solving for p, Initial residual = 0.0427393, Final residual = 0.00359788, No Iterations 11
time step continuity errors : sum local = 0.0373305, global = -1.23531e-17, cumulative = 2.45708e-16
Pressure gradient source: uncorrected Ubar = 0.999965, pressure gradient = 3.80784
smoothSolver:  Solving for omega, Initial residual = 0.0074967, Final residual = 0.000481641, No Iterations 5
smoothSolver:  Solving for k, Initial residual = 0.0339907, Final residual = 0.00316429, No Iterations 5
ExecutionTime = 0.069687 s  ClockTime = 0 s

Time = 22s

smoothSolver:  Solving for Ux, Initial residual = 0.0103328, Final residual = 0.000804524, No Iterations 5
smoothSolver:  Solving for Uy, Initial residual = 0.148198, Final residual = 0.0106174, No Iterations 4
Pressure gradient source: uncorrected Ubar = 1.00361, pressure gradient = 3.04296
GAMG:  Solving for p, Initial residual = 0.0264569, Final residual = 0.00257739, No Iterations 9
time step continuity errors : sum local = 0.0355872, global = -3.56703e-17, cumulative = 2.10038e-16
Pressure gradient source: uncorrected Ubar = 1.00091, pressure gradient = 3.61458
smoothSolver:  Solving for omega, Initial residual = 0.00691756, Final residual = 0.000472096, No Iterations 5
smoothSolver:  Solving for k, Initial residual = 0.0313875, Final residual = 0.00306314, No Iterations 5
ExecutionTime = 0.072485 s  ClockTime = 0 s

Time = 23s

smoothSolver:  Solving for Ux, Initial residual = 0.00992734, Final residual = 0.00078111, No Iterations 5
smoothSolver:  Solving for Uy, Initial residual = 0.12359, Final residual = 0.0101217, No Iterations 4
Pressure gradient source: uncorrected Ubar = 1.00164, pressure gradient = 3.24968
GAMG:  Solving for p, Initial residual = 0.0197461, Final residual = 0.00191685, No Iterations 11
time step continuity errors : sum local = 0.0323703, global = -3.0793e-17, cumulative = 1.79245e-16
Pressure gradient source: uncorrected Ubar = 1.00035, pressure gradient = 3.53597
smoothSolver:  Solving for omega, Initial residual = 0.00633827, Final residual = 0.000465833, No Iterations 5
smoothSolver:  Solving for k, Initial residual = 0.0288806, Final residual = 0.0018481, No Iterations 6
ExecutionTime = 0.075368 s  ClockTime = 0 s

Time = 24s

smoothSolver:  Solving for Ux, Initial residual = 0.00957741, Final residual = 0.000761328, No Iterations 5
smoothSolver:  Solving for Uy, Initial residual = 0.11244, Final residual = 0.00966781, No Iterations 4
Pressure gradient source: uncorrected Ubar = 1.00306, pressure gradient = 2.81745
GAMG:  Solving for p, Initial residual = 0.0140667, Final residual = 0.00138242, No Iterations 11
time step continuity errors : sum local = 0.0260507, global = -7.80668e-18, cumulative = 1.71439e-16
Pressure gradient source: uncorrected Ubar = 1.0006, pressure gradient = 3.39504
smoothSolver:  Solving for omega, Initial residual = 0.00608625, Final residual = 0.000450244, No Iterations 5
smoothSolver:  Solving for k, Initial residual = 0.0265699, Final residual = 0.00174894, No Iterations 6
ExecutionTime = 0.07822 s  ClockTime = 0 s

Time = 25s

smoothSolver:  Solving for Ux, Initial residual = 0.00925195, Final residual = 0.000741242, No Iterations 5
smoothSolver:  Solving for Uy, Initial residual = 0.113023, Final residual = 0.00942946, No Iterations 4
Pressure gradient source: uncorrected Ubar = 1.00287, pressure gradient = 2.68643
GAMG:  Solving for p, Initial residual = 0.00957776, Final residual = 0.000804724, No Iterations 13
time step continuity errors : sum local = 0.016458, global = -1.34445e-17, cumulative = 1.57994e-16
Pressure gradient source: uncorrected Ubar = 1.00037, pressure gradient = 3.3047
smoothSolver:  Solving for omega, Initial residual = 0.00563412, Final residual = 0.000442285, No Iterations 5
smoothSolver:  Solving for k, Initial residual = 0.0242279, Final residual = 0.00162645, No Iterations 6
ExecutionTime = 0.081167 s  ClockTime = 0 s

Time = 26s

smoothSolver:  Solving for Ux, Initial residual = 0.00896764, Final residual = 0.000724192, No Iterations 5
smoothSolver:  Solving for Uy, Initial residual = 0.102069, Final residual = 0.00928951, No Iterations 4
Pressure gradient source: uncorrected Ubar = 1.00473, pressure gradient = 2.07848
GAMG:  Solving for p, Initial residual = 0.00655653, Final residual = 0.000546059, No Iterations 13
time step continuity errors : sum local = 0.0116971, global = 6.89553e-17, cumulative = 2.26949e-16
Pressure gradient source: uncorrected Ubar = 1.00055, pressure gradient = 3.16126
smoothSolver:  Solving for omega, Initial residual = 0.00516868, Final residual = 0.000436833, No Iterations 5
smoothSolver:  Solving for k, Initial residual = 0.0223972, Final residual = 0.00154478, No Iterations 6
ExecutionTime = 0.084107 s  ClockTime = 0 s

Time = 27s

smoothSolver:  Solving for Ux, Initial residual = 0.00869191, Final residual = 0.000706549, No Iterations 5
smoothSolver:  Solving for Uy, Initial residual = 0.0852808, Final residual = 0.00518495, No Iterations 5
Pressure gradient source: uncorrected Ubar = 1.00332, pressure gradient = 2.25824
GAMG:  Solving for p, Initial residual = 0.00564333, Final residual = 0.000496216, No Iterations 11
time step continuity errors : sum local = 0.0101897, global = 7.12329e-17, cumulative = 2.98182e-16
Pressure gradient source: uncorrected Ubar = 1.00035, pressure gradient = 3.06606
smoothSolver:  Solving for omega, Initial residual = 0.00482892, Final residual = 0.000431074, No Iterations 5
smoothSolver:  Solving for k, Initial residual = 0.0207662, Final residual = 0.00146808, No Iterations 6
ExecutionTime = 0.086985 s  ClockTime = 0 s

Time = 28s

smoothSolver:  Solving for Ux, Initial residual = 0.00843117, Final residual = 0.000689464, No Iterations 5
smoothSolver:  Solving for Uy, Initial residual = 0.0689227, Final residual = 0.00474575, No Iterations 5
Pressure gradient source: uncorrected Ubar = 1.00236, pressure gradient = 2.39032
GAMG:  Solving for p, Initial residual = 0.00465794, Final residual = 0.000351028, No Iterations 11
time step continuity errors : sum local = 0.00674218, global = -1.2902e-17, cumulative = 2.8528e-16
Pressure gradient source: uncorrected Ubar = 1.00022, pressure gradient = 3.00258
smoothSolver:  Solving for omega, Initial residual = 0.00463168, Final residual = 0.000418599, No Iterations 5
smoothSolver:  Solving for k, Initial residual = 0.0192373, Final residual = 0.0013883, No Iterations 6
ExecutionTime = 0.089867 s  ClockTime = 0 s

Time = 29s

smoothSolver:  Solving for Ux, Initial residual = 0.00819398, Final residual = 0.000674204, No Iterations 5
smoothSolver:  Solving for Uy, Initial residual = 0.0628971, Final residual = 0.00429158, No Iterations 5
Pressure gradient source: uncorrected Ubar = 1.00212, pressure gradient = 2.36409
GAMG:  Solving for p, Initial residual = 0.00401265, Final residual = 0.000358545, No Iterations 6
time step continuity errors : sum local = 0.00597084, global = 4.47775e-17, cumulative = 3.30058e-16
Pressure gradient source: uncorrected Ubar = 1.00019, pressure gradient = 2.94616
smoothSolver:  Solving for omega, Initial residual = 0.00433705, Final residual = 0.000409404, No Iterations 5
smoothSolver:  Solving for k, Initial residual = 0.0179737, Final residual = 0.00132408, No Iterations 6
ExecutionTime = 0.09251 s  ClockTime = 0 s

Time = 30s

smoothSolver:  Solving for Ux, Initial residual = 0.00797578, Final residual = 0.000656487, No Iterations 5
smoothSolver:  Solving for Uy, Initial residual = 0.0540374, Final residual = 0.00372276, No Iterations 5
Pressure gradient source: uncorrected Ubar = 1.00132, pressure gradient = 2.53006
GAMG:  Solving for p, Initial residual = 0.0036036, Final residual = 0.000190227, No Iterations 5
time step continuity errors : sum local = 0.0028094, global = -9.28619e-17, cumulative = 2.37196e-16
Pressure gradient source: uncorrected Ubar = 1.00008, pressure gradient = 2.91996
smoothSolver:  Solving for omega, Initial residual = 0.00414585, Final residual = 0.000393734, No Iterations 5
smoothSolver:  Solving for k, Initial residual = 0.016588, Final residual = 0.00123787, No Iterations 6
ExecutionTime = 0.095144 s  ClockTime = 0 s

Time = 31s

smoothSolver:  Solving for Ux, Initial residual = 0.00773656, Final residual = 0.00063259, No Iterations 5
smoothSolver:  Solving for Uy, Initial residual = 0.0505069, Final residual = 0.00365115, No Iterations 5
Pressure gradient source: uncorrected Ubar = 1.00106, pressure gradient = 2.56822
GAMG:  Solving for p, Initial residual = 0.0031861, Final residual = 8.68272e-05, No Iterations 5
time step continuity errors : sum local = 0.00103527, global = 9.32956e-17, cumulative = 3.30491e-16
Pressure gradient source: uncorrected Ubar = 1.00005, pressure gradient = 2.90315
smoothSolver:  Solving for omega, Initial residual = 0.00391124, Final residual = 0.000382987, No Iterations 5
smoothSolver:  Solving for k, Initial residual = 0.0150195, Final residual = 0.00113161, No Iterations 6
ExecutionTime = 0.097812 s  ClockTime = 0 s

Time = 32s

smoothSolver:  Solving for Ux, Initial residual = 0.00745226, Final residual = 0.000608112, No Iterations 5
smoothSolver:  Solving for Uy, Initial residual = 0.0473915, Final residual = 0.00371078, No Iterations 5
Pressure gradient source: uncorrected Ubar = 1.00079, pressure gradient = 2.62811
GAMG:  Solving for p, Initial residual = 0.00285448, Final residual = 0.000191244, No Iterations 4
time step continuity errors : sum local = 0.00233356, global = -4.88738e-19, cumulative = 3.30003e-16
Pressure gradient source: uncorrected Ubar = 1.00002, pressure gradient = 2.89724
smoothSolver:  Solving for omega, Initial residual = 0.00376306, Final residual = 0.000369342, No Iterations 5
smoothSolver:  Solving for k, Initial residual = 0.0135432, Final residual = 0.00103139, No Iterations 6
ExecutionTime = 0.100363 s  ClockTime = 0 s

Time = 33s

smoothSolver:  Solving for Ux, Initial residual = 0.00716711, Final residual = 0.00058501, No Iterations 5
smoothSolver:  Solving for Uy, Initial residual = 0.0429419, Final residual = 0.00373208, No Iterations 5
Pressure gradient source: uncorrected Ubar = 1.00032, pressure gradient = 2.78167
GAMG:  Solving for p, Initial residual = 0.0024732, Final residual = 0.000218061, No Iterations 6
time step continuity errors : sum local = 0.00268618, global = -3.27427e-17, cumulative = 2.9726e-16
Pressure gradient source: uncorrected Ubar = 0.999954, pressure gradient = 2.91414
smoothSolver:  Solving for omega, Initial residual = 0.00357203, Final residual = 0.000237933, No Iterations 6
smoothSolver:  Solving for k, Initial residual = 0.012179, Final residual = 0.000932862, No Iterations 6
ExecutionTime = 0.103017 s  ClockTime = 0 s

Time = 34s

smoothSolver:  Solving for Ux, Initial residual = 0.00691151, Final residual = 0.000563966, No Iterations 5
smoothSolver:  Solving for Uy, Initial residual = 0.0386005, Final residual = 0.00363413, No Iterations 5
Pressure gradient source: uncorrected Ubar = 1.00022, pressure gradient = 2.83207
GAMG:  Solving for p, Initial residual = 0.00216395, Final residual = 0.000183917, No Iterations 8
time step continuity errors : sum local = 0.00216739, global = -6.72205e-18, cumulative = 2.90538e-16
Pressure gradient source: uncorrected Ubar = 0.999945, pressure gradient = 2.93504
smoothSolver:  Solving for omega, Initial residual = 0.00336994, Final residual = 0.000221977, No Iterations 6
smoothSolver:  Solving for k, Initial residual = 0.0109431, Final residual = 0.000836036, No Iterations 6
ExecutionTime = 0.105806 s  ClockTime = 0 s

Time = 35s

smoothSolver:  Solving for Ux, Initial residual = 0.00667629, Final residual = 0.000544737, No Iterations 5
smoothSolver:  Solving for Uy, Initial residual = 0.0351339, Final residual = 0.00348642, No Iterations 5
Pressure gradient source: uncorrected Ubar = 0.999928, pressure gradient = 2.96376
GAMG:  Solving for p, Initial residual = 0.00180203, Final residual = 0.000171142, No Iterations 8
time step continuity errors : sum local = 0.00182945, global = -5.43724e-17, cumulative = 2.36165e-16
Pressure gradient source: uncorrected Ubar = 0.999909, pressure gradient = 2.97099
smoothSolver:  Solving for omega, Initial residual = 0.00317527, Final residual = 0.000217824, No Iterations 6
smoothSolver:  Solving for k, Initial residual = 0.00990779, Final residual = 0.000760885, No Iterations 6
ExecutionTime = 0.108548 s  ClockTime = 0 s

Time = 36s

smoothSolver:  Solving for Ux, Initial residual = 0.00646318, Final residual = 0.000527556, No Iterations 5
smoothSolver:  Solving for Uy, Initial residual = 0.0326652, Final residual = 0.00217068, No Iterations 6
Pressure gradient source: uncorrected Ubar = 0.999986, pressure gradient = 2.97688
GAMG:  Solving for p, Initial residual = 0.00157083, Final residual = 0.000131536, No Iterations 10
time step continuity errors : sum local = 0.00130354, global = 1.72659e-17, cumulative = 2.53431e-16
Pressure gradient source: uncorrected Ubar = 0.999912, pressure gradient = 3.00748
smoothSolver:  Solving for omega, Initial residual = 0.00301722, Final residual = 0.000207045, No Iterations 6
smoothSolver:  Solving for k, Initial residual = 0.00905787, Final residual = 0.000694089, No Iterations 6
ExecutionTime = 0.111385 s  ClockTime = 0 s

Time = 37s

smoothSolver:  Solving for Ux, Initial residual = 0.00626707, Final residual = 0.000512045, No Iterations 5
smoothSolver:  Solving for Uy, Initial residual = 0.0301827, Final residual = 0.0020449, No Iterations 6
Pressure gradient source: uncorrected Ubar = 0.999953, pressure gradient = 3.02795
GAMG:  Solving for p, Initial residual = 0.00141334, Final residual = 0.000130856, No Iterations 18
time step continuity errors : sum local = 0.00113749, global = -4.83012e-17, cumulative = 2.0513e-16
Pressure gradient source: uncorrected Ubar = 0.99991, pressure gradient = 3.0463
smoothSolver:  Solving for omega, Initial residual = 0.002882, Final residual = 0.000208198, No Iterations 6
smoothSolver:  Solving for k, Initial residual = 0.00840193, Final residual = 0.000634804, No Iterations 6
ExecutionTime = 0.11466 s  ClockTime = 0 s

Time = 38s

smoothSolver:  Solving for Ux, Initial residual = 0.00608931, Final residual = 0.000498322, No Iterations 5
smoothSolver:  Solving for Uy, Initial residual = 0.0283525, Final residual = 0.00192641, No Iterations 6
Pressure gradient source: uncorrected Ubar = 1.00001, pressure gradient = 3.04096
GAMG:  Solving for p, Initial residual = 0.00126923, Final residual = 0.000113167, No Iterations 20
time step continuity errors : sum local = 0.000912064, global = -2.29308e-17, cumulative = 1.82199e-16
Pressure gradient source: uncorrected Ubar = 0.999916, pressure gradient = 3.08426
smoothSolver:  Solving for omega, Initial residual = 0.00273461, Final residual = 0.000192838, No Iterations 6
smoothSolver:  Solving for k, Initial residual = 0.00792861, Final residual = 0.000586332, No Iterations 6
ExecutionTime = 0.117965 s  ClockTime = 0 s

Time = 39s

smoothSolver:  Solving for Ux, Initial residual = 0.00592549, Final residual = 0.000486294, No Iterations 5
smoothSolver:  Solving for Uy, Initial residual = 0.0282377, Final residual = 0.00190186, No Iterations 6
Pressure gradient source: uncorrected Ubar = 0.999969, pressure gradient = 3.09869
GAMG:  Solving for p, Initial residual = 0.00120524, Final residual = 0.000111187, No Iterations 18
time step continuity errors : sum local = 0.000817557, global = -1.39862e-17, cumulative = 1.68213e-16
Pressure gradient source: uncorrected Ubar = 0.999912, pressure gradient = 3.12566
smoothSolver:  Solving for omega, Initial residual = 0.00262912, Final residual = 0.000191812, No Iterations 6
smoothSolver:  Solving for k, Initial residual = 0.00759606, Final residual = 0.000552266, No Iterations 6
ExecutionTime = 0.121175 s  ClockTime = 0 s

Time = 40s

smoothSolver:  Solving for Ux, Initial residual = 0.00577435, Final residual = 0.00047536, No Iterations 5
smoothSolver:  Solving for Uy, Initial residual = 0.0277641, Final residual = 0.00187258, No Iterations 6
Pressure gradient source: uncorrected Ubar = 1.0001, pressure gradient = 3.07596
GAMG:  Solving for p, Initial residual = 0.0010848, Final residual = 0.000108025, No Iterations 16
time step continuity errors : sum local = 0.00072866, global = 2.95716e-17, cumulative = 1.97785e-16
Pressure gradient source: uncorrected Ubar = 0.999928, pressure gradient = 3.16061
smoothSolver:  Solving for omega, Initial residual = 0.00250896, Final residual = 0.000181341, No Iterations 6
smoothSolver:  Solving for k, Initial residual = 0.00737833, Final residual = 0.000538661, No Iterations 6
ExecutionTime = 0.124333 s  ClockTime = 0 s

Time = 41s

smoothSolver:  Solving for Ux, Initial residual = 0.00563088, Final residual = 0.000464851, No Iterations 5
smoothSolver:  Solving for Uy, Initial residual = 0.0273003, Final residual = 0.00183728, No Iterations 6
Pressure gradient source: uncorrected Ubar = 0.999996, pressure gradient = 3.16239
GAMG:  Solving for p, Initial residual = 0.000992826, Final residual = 9.84035e-05, No Iterations 14
time step continuity errors : sum local = 0.000606476, global = 6.46998e-17, cumulative = 2.62485e-16
Pressure gradient source: uncorrected Ubar = 0.999915, pressure gradient = 3.2042
smoothSolver:  Solving for omega, Initial residual = 0.00241542, Final residual = 0.000175918, No Iterations 6
smoothSolver:  Solving for k, Initial residual = 0.00723905, Final residual = 0.000533553, No Iterations 6
ExecutionTime = 0.127397 s  ClockTime = 0 s

Time = 42s

smoothSolver:  Solving for Ux, Initial residual = 0.0055017, Final residual = 0.000455674, No Iterations 5
smoothSolver:  Solving for Uy, Initial residual = 0.0263277, Final residual = 0.00177125, No Iterations 6
Pressure gradient source: uncorrected Ubar = 1.00004, pressure gradient = 3.18341
GAMG:  Solving for p, Initial residual = 0.000901006, Final residual = 8.20731e-05, No Iterations 6
time step continuity errors : sum local = 0.000464372, global = 9.6494e-18, cumulative = 2.72134e-16
Pressure gradient source: uncorrected Ubar = 0.999922, pressure gradient = 3.24577
smoothSolver:  Solving for omega, Initial residual = 0.00231707, Final residual = 0.000169134, No Iterations 6
smoothSolver:  Solving for k, Initial residual = 0.00714802, Final residual = 0.000533489, No Iterations 6
ExecutionTime = 0.130045 s  ClockTime = 0 s

Time = 43s

smoothSolver:  Solving for Ux, Initial residual = 0.0053778, Final residual = 0.000447185, No Iterations 5
smoothSolver:  Solving for Uy, Initial residual = 0.0257127, Final residual = 0.0017228, No Iterations 6
Pressure gradient source: uncorrected Ubar = 1.00005, pressure gradient = 3.22042
GAMG:  Solving for p, Initial residual = 0.000751431, Final residual = 7.35606e-05, No Iterations 10
time step continuity errors : sum local = 0.000359176, global = 1.70761e-17, cumulative = 2.8921e-16
Pressure gradient source: uncorrected Ubar = 0.999922, pressure gradient = 3.28881
smoothSolver:  Solving for omega, Initial residual = 0.00222433, Final residual = 0.000162629, No Iterations 6
smoothSolver:  Solving for k, Initial residual = 0.00710072, Final residual = 0.000536571, No Iterations 6
ExecutionTime = 0.132876 s  ClockTime = 0 s

Time = 44s

smoothSolver:  Solving for Ux, Initial residual = 0.00526158, Final residual = 0.000439257, No Iterations 5
smoothSolver:  Solving for Uy, Initial residual = 0.024665, Final residual = 0.00162784, No Iterations 6
Pressure gradient source: uncorrected Ubar = 1.00005, pressure gradient = 3.25882
GAMG:  Solving for p, Initial residual = 0.00071881, Final residual = 7.04574e-05, No Iterations 10
time step continuity errors : sum local = 0.000319183, global = -8.34836e-18, cumulative = 2.80862e-16
Pressure gradient source: uncorrected Ubar = 0.999925, pressure gradient = 3.33246
smoothSolver:  Solving for omega, Initial residual = 0.00214524, Final residual = 0.000157231, No Iterations 6
smoothSolver:  Solving for k, Initial residual = 0.00703475, Final residual = 0.000534215, No Iterations 6
ExecutionTime = 0.135772 s  ClockTime = 0 s

Time = 45s

smoothSolver:  Solving for Ux, Initial residual = 0.00515342, Final residual = 0.000431875, No Iterations 5
smoothSolver:  Solving for Uy, Initial residual = 0.0239493, Final residual = 0.00154556, No Iterations 6
Pressure gradient source: uncorrected Ubar = 1.00013, pressure gradient = 3.25151
GAMG:  Solving for p, Initial residual = 0.000657999, Final residual = 6.42997e-05, No Iterations 10
time step continuity errors : sum local = 0.000278737, global = -1.52061e-17, cumulative = 2.65656e-16
Pressure gradient source: uncorrected Ubar = 0.999937, pressure gradient = 3.37037
smoothSolver:  Solving for omega, Initial residual = 0.00206125, Final residual = 0.000152235, No Iterations 6
smoothSolver:  Solving for k, Initial residual = 0.00700911, Final residual = 0.000538409, No Iterations 6
ExecutionTime = 0.138591 s  ClockTime = 0 s

Time = 46s

smoothSolver:  Solving for Ux, Initial residual = 0.00504991, Final residual = 0.000424651, No Iterations 5
smoothSolver:  Solving for Uy, Initial residual = 0.0233884, Final residual = 0.0015012, No Iterations 6
Pressure gradient source: uncorrected Ubar = 1.00006, pressure gradient = 3.3345
GAMG:  Solving for p, Initial residual = 0.000624448, Final residual = 6.07299e-05, No Iterations 10
time step continuity errors : sum local = 0.000253536, global = 5.6243e-19, cumulative = 2.66218e-16
Pressure gradient source: uncorrected Ubar = 0.999927, pressure gradient = 3.41638
smoothSolver:  Solving for omega, Initial residual = 0.00198845, Final residual = 0.00014656, No Iterations 6
smoothSolver:  Solving for k, Initial residual = 0.0069455, Final residual = 0.00053268, No Iterations 6
ExecutionTime = 0.141475 s  ClockTime = 0 s

Time = 47s

smoothSolver:  Solving for Ux, Initial residual = 0.00495447, Final residual = 0.000418317, No Iterations 5
smoothSolver:  Solving for Uy, Initial residual = 0.0228756, Final residual = 0.00148895, No Iterations 6
Pressure gradient source: uncorrected Ubar = 1.0001, pressure gradient = 3.35109
GAMG:  Solving for p, Initial residual = 0.000630593, Final residual = 6.10375e-05, No Iterations 9
time step continuity errors : sum local = 0.000253138, global = 2.11148e-17, cumulative = 2.87333e-16
Pressure gradient source: uncorrected Ubar = 0.999934, pressure gradient = 3.45966
smoothSolver:  Solving for omega, Initial residual = 0.00190497, Final residual = 0.000139551, No Iterations 6
smoothSolver:  Solving for k, Initial residual = 0.00688697, Final residual = 0.000530231, No Iterations 6
ExecutionTime = 0.144294 s  ClockTime = 0 s

Time = 48s

smoothSolver:  Solving for Ux, Initial residual = 0.00486229, Final residual = 0.000412244, No Iterations 5
smoothSolver:  Solving for Uy, Initial residual = 0.0223727, Final residual = 0.00149606, No Iterations 6
Pressure gradient source: uncorrected Ubar = 1.00011, pressure gradient = 3.38542
GAMG:  Solving for p, Initial residual = 0.0006272, Final residual = 5.29504e-05, No Iterations 7
time step continuity errors : sum local = 0.000233792, global = -1.39591e-17, cumulative = 2.73374e-16
Pressure gradient source: uncorrected Ubar = 0.999936, pressure gradient = 3.50303
smoothSolver:  Solving for omega, Initial residual = 0.00183968, Final residual = 0.000136218, No Iterations 6
smoothSolver:  Solving for k, Initial residual = 0.00681725, Final residual = 0.000523052, No Iterations 6
ExecutionTime = 0.147014 s  ClockTime = 0 s

Time = 49s

smoothSolver:  Solving for Ux, Initial residual = 0.00477431, Final residual = 0.000406211, No Iterations 5
smoothSolver:  Solving for Uy, Initial residual = 0.0221277, Final residual = 0.00152349, No Iterations 6
Pressure gradient source: uncorrected Ubar = 1.00011, pressure gradient = 3.42368
GAMG:  Solving for p, Initial residual = 0.000597671, Final residual = 5.1079e-05, No Iterations 7
time step continuity errors : sum local = 0.000214626, global = -6.92534e-18, cumulative = 2.66448e-16
Pressure gradient source: uncorrected Ubar = 0.999937, pressure gradient = 3.54722
smoothSolver:  Solving for omega, Initial residual = 0.0017687, Final residual = 0.000131291, No Iterations 6
smoothSolver:  Solving for k, Initial residual = 0.00677395, Final residual = 0.000520134, No Iterations 6
ExecutionTime = 0.149709 s  ClockTime = 0 s

Time = 50s

smoothSolver:  Solving for Ux, Initial residual = 0.00469293, Final residual = 0.000400547, No Iterations 5
smoothSolver:  Solving for Uy, Initial residual = 0.022065, Final residual = 0.00156523, No Iterations 6
Pressure gradient source: uncorrected Ubar = 1.00009, pressure gradient = 3.48007
GAMG:  Solving for p, Initial residual = 0.000595002, Final residual = 5.35789e-05, No Iterations 7
time step continuity errors : sum local = 0.000217874, global = -7.275e-17, cumulative = 1.93698e-16
Pressure gradient source: uncorrected Ubar = 0.999935, pressure gradient = 3.59461
smoothSolver:  Solving for omega, Initial residual = 0.00169801, Final residual = 0.000125606, No Iterations 6
smoothSolver:  Solving for k, Initial residual = 0.00672293, Final residual = 0.000516474, No Iterations 6
ExecutionTime = 0.152402 s  ClockTime = 0 s

Time = 51s

smoothSolver:  Solving for Ux, Initial residual = 0.00461359, Final residual = 0.000395271, No Iterations 5
smoothSolver:  Solving for Uy, Initial residual = 0.0221356, Final residual = 0.00159272, No Iterations 6
Pressure gradient source: uncorrected Ubar = 1.00011, pressure gradient = 3.50754
GAMG:  Solving for p, Initial residual = 0.000533436, Final residual = 4.71758e-05, No Iterations 14
time step continuity errors : sum local = 0.000189462, global = -4.88433e-17, cumulative = 1.44855e-16
Pressure gradient source: uncorrected Ubar = 0.99994, pressure gradient = 3.64046
smoothSolver:  Solving for omega, Initial residual = 0.00163901, Final residual = 0.000122502, No Iterations 6
smoothSolver:  Solving for k, Initial residual = 0.00670139, Final residual = 0.000517116, No Iterations 6
ExecutionTime = 0.15544 s  ClockTime = 0 s

Time = 52s

smoothSolver:  Solving for Ux, Initial residual = 0.00453644, Final residual = 0.000390245, No Iterations 5
smoothSolver:  Solving for Uy, Initial residual = 0.0219363, Final residual = 0.00159578, No Iterations 6
Pressure gradient source: uncorrected Ubar = 1.00008, pressure gradient = 3.58047
GAMG:  Solving for p, Initial residual = 0.00056069, Final residual = 5.58469e-05, No Iterations 14
time step continuity errors : sum local = 0.000214151, global = 2.58311e-17, cumulative = 1.70686e-16
Pressure gradient source: uncorrected Ubar = 0.999934, pressure gradient = 3.69208
smoothSolver:  Solving for omega, Initial residual = 0.00157115, Final residual = 0.000117597, No Iterations 6
smoothSolver:  Solving for k, Initial residual = 0.00667029, Final residual = 0.000518092, No Iterations 6
ExecutionTime = 0.158463 s  ClockTime = 0 s

Time = 53s

smoothSolver:  Solving for Ux, Initial residual = 0.00446249, Final residual = 0.000385193, No Iterations 5
smoothSolver:  Solving for Uy, Initial residual = 0.021657, Final residual = 0.00159044, No Iterations 6
Pressure gradient source: uncorrected Ubar = 1.00011, pressure gradient = 3.60092
GAMG:  Solving for p, Initial residual = 0.00056868, Final residual = 5.12465e-05, No Iterations 16
time step continuity errors : sum local = 0.000188038, global = 5.81946e-17, cumulative = 2.28881e-16
Pressure gradient source: uncorrected Ubar = 0.999941, pressure gradient = 3.74074
smoothSolver:  Solving for omega, Initial residual = 0.00151359, Final residual = 0.000113237, No Iterations 6
smoothSolver:  Solving for k, Initial residual = 0.00661554, Final residual = 0.000512852, No Iterations 6
ExecutionTime = 0.16158 s  ClockTime = 0 s

Time = 54s

smoothSolver:  Solving for Ux, Initial residual = 0.00439377, Final residual = 0.000380372, No Iterations 5
smoothSolver:  Solving for Uy, Initial residual = 0.0214841, Final residual = 0.00158139, No Iterations 6
Pressure gradient source: uncorrected Ubar = 1.00013, pressure gradient = 3.62801
GAMG:  Solving for p, Initial residual = 0.000582993, Final residual = 5.82359e-05, No Iterations 20
time step continuity errors : sum local = 0.000198181, global = -1.16416e-17, cumulative = 2.17239e-16
Pressure gradient source: uncorrected Ubar = 0.999944, pressure gradient = 3.78787
smoothSolver:  Solving for omega, Initial residual = 0.00145596, Final residual = 0.000108992, No Iterations 6
smoothSolver:  Solving for k, Initial residual = 0.00658721, Final residual = 0.000514198, No Iterations 6
ExecutionTime = 0.164877 s  ClockTime = 0 s

Time = 55s

smoothSolver:  Solving for Ux, Initial residual = 0.00432825, Final residual = 0.000375873, No Iterations 5
smoothSolver:  Solving for Uy, Initial residual = 0.0213882, Final residual = 0.0015887, No Iterations 6
Pressure gradient source: uncorrected Ubar = 1.00018, pressure gradient = 3.62954
GAMG:  Solving for p, Initial residual = 0.000575942, Final residual = 5.34707e-05, No Iterations 22
time step continuity errors : sum local = 0.00017185, global = -6.2884e-18, cumulative = 2.10951e-16
Pressure gradient source: uncorrected Ubar = 0.999953, pressure gradient = 3.8296
smoothSolver:  Solving for omega, Initial residual = 0.00140219, Final residual = 0.000105188, No Iterations 6
smoothSolver:  Solving for k, Initial residual = 0.00654258, Final residual = 0.000509969, No Iterations 6
ExecutionTime = 0.168245 s  ClockTime = 0 s

Time = 56s

smoothSolver:  Solving for Ux, Initial residual = 0.00426559, Final residual = 0.000371799, No Iterations 5
smoothSolver:  Solving for Uy, Initial residual = 0.0214096, Final residual = 0.00159929, No Iterations 6
Pressure gradient source: uncorrected Ubar = 1.0002, pressure gradient = 3.64684
GAMG:  Solving for p, Initial residual = 0.000565351, Final residual = 5.50311e-05, No Iterations 22
time step continuity errors : sum local = 0.000165057, global = -1.51788e-17, cumulative = 1.95772e-16
Pressure gradient source: uncorrected Ubar = 0.999957, pressure gradient = 3.86914
smoothSolver:  Solving for omega, Initial residual = 0.00135101, Final residual = 0.000100782, No Iterations 6
smoothSolver:  Solving for k, Initial residual = 0.00652905, Final residual = 0.000512616, No Iterations 6
ExecutionTime = 0.171638 s  ClockTime = 0 s

Time = 57s

smoothSolver:  Solving for Ux, Initial residual = 0.0042048, Final residual = 0.000367794, No Iterations 5
smoothSolver:  Solving for Uy, Initial residual = 0.0215993, Final residual = 0.00162165, No Iterations 6
Pressure gradient source: uncorrected Ubar = 1.00023, pressure gradient = 3.6537
GAMG:  Solving for p, Initial residual = 0.000559555, Final residual = 4.89236e-05, No Iterations 24
time step continuity errors : sum local = 0.00013821, global = 6.0363e-17, cumulative = 2.56135e-16
Pressure gradient source: uncorrected Ubar = 0.999962, pressure gradient = 3.90521
smoothSolver:  Solving for omega, Initial residual = 0.00131032, Final residual = 9.77809e-05, No Iterations 6
smoothSolver:  Solving for k, Initial residual = 0.00648911, Final residual = 0.000509383, No Iterations 6
ExecutionTime = 0.17519 s  ClockTime = 0 s

Time = 58s

smoothSolver:  Solving for Ux, Initial residual = 0.00414865, Final residual = 0.000363949, No Iterations 5
smoothSolver:  Solving for Uy, Initial residual = 0.0217254, Final residual = 0.00163689, No Iterations 6
Pressure gradient source: uncorrected Ubar = 1.00027, pressure gradient = 3.64456
GAMG:  Solving for p, Initial residual = 0.000557757, Final residual = 5.50565e-05, No Iterations 22
time step continuity errors : sum local = 0.000144028, global = -5.02799e-17, cumulative = 2.05855e-16
Pressure gradient source: uncorrected Ubar = 0.999969, pressure gradient = 3.93566
smoothSolver:  Solving for omega, Initial residual = 0.00127264, Final residual = 9.56259e-05, No Iterations 6
smoothSolver:  Solving for k, Initial residual = 0.00646373, Final residual = 0.000510311, No Iterations 6
ExecutionTime = 0.178562 s  ClockTime = 0 s

Time = 59s

smoothSolver:  Solving for Ux, Initial residual = 0.00409498, Final residual = 0.000360314, No Iterations 5
smoothSolver:  Solving for Uy, Initial residual = 0.021639, Final residual = 0.00163636, No Iterations 6
Pressure gradient source: uncorrected Ubar = 1.0003, pressure gradient = 3.63604
GAMG:  Solving for p, Initial residual = 0.000551013, Final residual = 4.80052e-05, No Iterations 24
time step continuity errors : sum local = 0.000118523, global = -1.57955e-17, cumulative = 1.9006e-16
Pressure gradient source: uncorrected Ubar = 0.999975, pressure gradient = 3.96123
smoothSolver:  Solving for omega, Initial residual = 0.00123659, Final residual = 9.14891e-05, No Iterations 6
smoothSolver:  Solving for k, Initial residual = 0.00642502, Final residual = 0.000508692, No Iterations 6
ExecutionTime = 0.182067 s  ClockTime = 0 s

Time = 60s

smoothSolver:  Solving for Ux, Initial residual = 0.00404351, Final residual = 0.000357084, No Iterations 5
smoothSolver:  Solving for Uy, Initial residual = 0.0214733, Final residual = 0.00163002, No Iterations 6
Pressure gradient source: uncorrected Ubar = 1.00033, pressure gradient = 3.62045
GAMG:  Solving for p, Initial residual = 0.000555073, Final residual = 5.45135e-05, No Iterations 22
time step continuity errors : sum local = 0.000124604, global = -2.42861e-17, cumulative = 1.65773e-16
Pressure gradient source: uncorrected Ubar = 0.999981, pressure gradient = 3.98147
smoothSolver:  Solving for omega, Initial residual = 0.00120398, Final residual = 9.01427e-05, No Iterations 6
smoothSolver:  Solving for k, Initial residual = 0.00639863, Final residual = 0.000508528, No Iterations 6
ExecutionTime = 0.185465 s  ClockTime = 0 s

Time = 61s

smoothSolver:  Solving for Ux, Initial residual = 0.00399395, Final residual = 0.000353913, No Iterations 5
smoothSolver:  Solving for Uy, Initial residual = 0.0213592, Final residual = 0.00161945, No Iterations 6
Pressure gradient source: uncorrected Ubar = 1.00036, pressure gradient = 3.59721
GAMG:  Solving for p, Initial residual = 0.000595904, Final residual = 5.42868e-05, No Iterations 22
time step continuity errors : sum local = 0.000116501, global = 1.72388e-17, cumulative = 1.83012e-16
Pressure gradient source: uncorrected Ubar = 0.999987, pressure gradient = 3.99597
smoothSolver:  Solving for omega, Initial residual = 0.00116915, Final residual = 8.67413e-05, No Iterations 6
smoothSolver:  Solving for k, Initial residual = 0.00637276, Final residual = 0.000508834, No Iterations 6
ExecutionTime = 0.188838 s  ClockTime = 0 s

Time = 62s

smoothSolver:  Solving for Ux, Initial residual = 0.00394732, Final residual = 0.000350825, No Iterations 5
smoothSolver:  Solving for Uy, Initial residual = 0.021335, Final residual = 0.00162644, No Iterations 6
Pressure gradient source: uncorrected Ubar = 1.00038, pressure gradient = 3.5765
GAMG:  Solving for p, Initial residual = 0.000587189, Final residual = 5.3686e-05, No Iterations 22
time step continuity errors : sum local = 0.000107975, global = 2.54652e-17, cumulative = 2.08477e-16
Pressure gradient source: uncorrected Ubar = 0.999991, pressure gradient = 4.00577
smoothSolver:  Solving for omega, Initial residual = 0.00114202, Final residual = 8.55329e-05, No Iterations 6
smoothSolver:  Solving for k, Initial residual = 0.00633908, Final residual = 0.000506708, No Iterations 6
ExecutionTime = 0.19223 s  ClockTime = 0 s

Time = 63s

smoothSolver:  Solving for Ux, Initial residual = 0.00390313, Final residual = 0.00034782, No Iterations 5
smoothSolver:  Solving for Uy, Initial residual = 0.0212077, Final residual = 0.00162018, No Iterations 6
Pressure gradient source: uncorrected Ubar = 1.00039, pressure gradient = 3.55894
GAMG:  Solving for p, Initial residual = 0.000589542, Final residual = 5.31608e-05, No Iterations 22
time step continuity errors : sum local = 9.98114e-05, global = 1.06523e-17, cumulative = 2.1913e-16
Pressure gradient source: uncorrected Ubar = 0.999995, pressure gradient = 4.01195
smoothSolver:  Solving for omega, Initial residual = 0.00110922, Final residual = 8.21368e-05, No Iterations 6
smoothSolver:  Solving for k, Initial residual = 0.00629792, Final residual = 0.000504527, No Iterations 6
ExecutionTime = 0.195791 s  ClockTime = 0 s

Time = 64s

smoothSolver:  Solving for Ux, Initial residual = 0.00386074, Final residual = 0.000345151, No Iterations 5
smoothSolver:  Solving for Uy, Initial residual = 0.0211225, Final residual = 0.00161753, No Iterations 6
Pressure gradient source: uncorrected Ubar = 1.00041, pressure gradient = 3.52924
GAMG:  Solving for p, Initial residual = 0.00058395, Final residual = 5.19214e-05, No Iterations 22
time step continuity errors : sum local = 9.11185e-05, global = 1.33492e-17, cumulative = 2.32479e-16
Pressure gradient source: uncorrected Ubar = 0.999999, pressure gradient = 4.01308
smoothSolver:  Solving for omega, Initial residual = 0.00108515, Final residual = 8.05616e-05, No Iterations 6
smoothSolver:  Solving for k, Initial residual = 0.00628005, Final residual = 0.000505057, No Iterations 6
ExecutionTime = 0.199313 s  ClockTime = 0 s

Time = 65s

smoothSolver:  Solving for Ux, Initial residual = 0.00381886, Final residual = 0.000342609, No Iterations 5
smoothSolver:  Solving for Uy, Initial residual = 0.0210159, Final residual = 0.00161488, No Iterations 6
Pressure gradient source: uncorrected Ubar = 1.00042, pressure gradient = 3.50582
GAMG:  Solving for p, Initial residual = 0.000573595, Final residual = 5.03401e-05, No Iterations 22
time step continuity errors : sum local = 8.23377e-05, global = 2.41235e-18, cumulative = 2.34891e-16
Pressure gradient source: uncorrected Ubar = 1, pressure gradient = 4.01089
smoothSolver:  Solving for omega, Initial residual = 0.00106097, Final residual = 7.83301e-05, No Iterations 6
smoothSolver:  Solving for k, Initial residual = 0.0062354, Final residual = 0.000502295, No Iterations 6
ExecutionTime = 0.2027 s  ClockTime = 0 s

Time = 66s

smoothSolver:  Solving for Ux, Initial residual = 0.00377841, Final residual = 0.000340146, No Iterations 5
smoothSolver:  Solving for Uy, Initial residual = 0.0208313, Final residual = 0.00160514, No Iterations 6
Pressure gradient source: uncorrected Ubar = 1.00043, pressure gradient = 3.48236
GAMG:  Solving for p, Initial residual = 0.000569007, Final residual = 4.89983e-05, No Iterations 22
time step continuity errors : sum local = 7.47065e-05, global = -2.50857e-17, cumulative = 2.09806e-16
Pressure gradient source: uncorrected Ubar = 1, pressure gradient = 4.00573
smoothSolver:  Solving for omega, Initial residual = 0.00104161, Final residual = 7.79943e-05, No Iterations 6
smoothSolver:  Solving for k, Initial residual = 0.00620829, Final residual = 0.000501922, No Iterations 6
ExecutionTime = 0.206122 s  ClockTime = 0 s

Time = 67s

smoothSolver:  Solving for Ux, Initial residual = 0.00374028, Final residual = 0.000337676, No Iterations 5
smoothSolver:  Solving for Uy, Initial residual = 0.020567, Final residual = 0.00158906, No Iterations 6
Pressure gradient source: uncorrected Ubar = 1.00044, pressure gradient = 3.45094
GAMG:  Solving for p, Initial residual = 0.000635435, Final residual = 5.52312e-05, No Iterations 20
time step continuity errors : sum local = 7.75822e-05, global = 3.38407e-17, cumulative = 2.43646e-16
Pressure gradient source: uncorrected Ubar = 1.00001, pressure gradient = 3.99672
smoothSolver:  Solving for omega, Initial residual = 0.00101898, Final residual = 7.61395e-05, No Iterations 6
smoothSolver:  Solving for k, Initial residual = 0.00616537, Final residual = 0.00049888, No Iterations 6
ExecutionTime = 0.20943 s  ClockTime = 0 s

Time = 68s

smoothSolver:  Solving for Ux, Initial residual = 0.00370386, Final residual = 0.000335221, No Iterations 5
smoothSolver:  Solving for Uy, Initial residual = 0.0204733, Final residual = 0.00158386, No Iterations 6
Pressure gradient source: uncorrected Ubar = 1.00044, pressure gradient = 3.42325
GAMG:  Solving for p, Initial residual = 0.000634777, Final residual = 6.24872e-05, No Iterations 18
time step continuity errors : sum local = 8.11072e-05, global = -2.5411e-17, cumulative = 2.18235e-16
Pressure gradient source: uncorrected Ubar = 1.00001, pressure gradient = 3.98499
smoothSolver:  Solving for omega, Initial residual = 0.000999803, Final residual = 7.4405e-05, No Iterations 6
smoothSolver:  Solving for k, Initial residual = 0.00615205, Final residual = 0.000500023, No Iterations 6
ExecutionTime = 0.212665 s  ClockTime = 0 s

Time = 69s

smoothSolver:  Solving for Ux, Initial residual = 0.00366797, Final residual = 0.000332976, No Iterations 5
smoothSolver:  Solving for Uy, Initial residual = 0.0202623, Final residual = 0.00156991, No Iterations 6
Pressure gradient source: uncorrected Ubar = 1.00045, pressure gradient = 3.39264
GAMG:  Solving for p, Initial residual = 0.000631312, Final residual = 6.2435e-05, No Iterations 18
time step continuity errors : sum local = 7.56017e-05, global = 1.24683e-18, cumulative = 2.19482e-16
Pressure gradient source: uncorrected Ubar = 1.00001, pressure gradient = 3.97041
smoothSolver:  Solving for omega, Initial residual = 0.000982782, Final residual = 7.34916e-05, No Iterations 6
smoothSolver:  Solving for k, Initial residual = 0.00611272, Final residual = 0.000498467, No Iterations 6
ExecutionTime = 0.215884 s  ClockTime = 0 s

Time = 70s

smoothSolver:  Solving for Ux, Initial residual = 0.00363337, Final residual = 0.000330935, No Iterations 5
smoothSolver:  Solving for Uy, Initial residual = 0.0200453, Final residual = 0.00155747, No Iterations 6
Pressure gradient source: uncorrected Ubar = 1.00045, pressure gradient = 3.36339
GAMG:  Solving for p, Initial residual = 0.000626946, Final residual = 5.85367e-05, No Iterations 18
time step continuity errors : sum local = 6.63773e-05, global = 8.23316e-18, cumulative = 2.27715e-16
Pressure gradient source: uncorrected Ubar = 1.00001, pressure gradient = 3.95358
smoothSolver:  Solving for omega, Initial residual = 0.000963421, Final residual = 7.20415e-05, No Iterations 6
smoothSolver:  Solving for k, Initial residual = 0.00608371, Final residual = 0.000497859, No Iterations 6
ExecutionTime = 0.219117 s  ClockTime = 0 s

Time = 71s

smoothSolver:  Solving for Ux, Initial residual = 0.00359949, Final residual = 0.000328934, No Iterations 5
smoothSolver:  Solving for Uy, Initial residual = 0.0199056, Final residual = 0.00154956, No Iterations 6
Pressure gradient source: uncorrected Ubar = 1.00045, pressure gradient = 3.33511
GAMG:  Solving for p, Initial residual = 0.000633186, Final residual = 6.27472e-05, No Iterations 16
time step continuity errors : sum local = 6.54681e-05, global = 4.72306e-17, cumulative = 2.74946e-16
Pressure gradient source: uncorrected Ubar = 1.00001, pressure gradient = 3.93494
smoothSolver:  Solving for omega, Initial residual = 0.000944714, Final residual = 7.09833e-05, No Iterations 6
smoothSolver:  Solving for k, Initial residual = 0.00603691, Final residual = 0.000494677, No Iterations 6
ExecutionTime = 0.222248 s  ClockTime = 0 s

Time = 72s

smoothSolver:  Solving for Ux, Initial residual = 0.00356721, Final residual = 0.000326957, No Iterations 5
smoothSolver:  Solving for Uy, Initial residual = 0.0196454, Final residual = 0.00153257, No Iterations 6
Pressure gradient source: uncorrected Ubar = 1.00045, pressure gradient = 3.31025
GAMG:  Solving for p, Initial residual = 0.000641383, Final residual = 6.20551e-05, No Iterations 14
time step continuity errors : sum local = 5.96072e-05, global = 1.90955e-17, cumulative = 2.94041e-16
Pressure gradient source: uncorrected Ubar = 1.00001, pressure gradient = 3.91532
smoothSolver:  Solving for omega, Initial residual = 0.000927457, Final residual = 6.9906e-05, No Iterations 6
smoothSolver:  Solving for k, Initial residual = 0.00602195, Final residual = 0.00049657, No Iterations 6
ExecutionTime = 0.225289 s  ClockTime = 0 s

Time = 73s

smoothSolver:  Solving for Ux, Initial residual = 0.00353663, Final residual = 0.000324987, No Iterations 5
smoothSolver:  Solving for Uy, Initial residual = 0.0193068, Final residual = 0.00150912, No Iterations 6
Pressure gradient source: uncorrected Ubar = 1.00045, pressure gradient = 3.26763
GAMG:  Solving for p, Initial residual = 0.000708539, Final residual = 6.09435e-05, No Iterations 13
time step continuity errors : sum local = 5.5741e-05, global = 1.42268e-17, cumulative = 3.08268e-16
Pressure gradient source: uncorrected Ubar = 1.00002, pressure gradient = 3.89187
smoothSolver:  Solving for omega, Initial residual = 0.000909856, Final residual = 6.89972e-05, No Iterations 6
smoothSolver:  Solving for k, Initial residual = 0.00597229, Final residual = 0.000492827, No Iterations 6
ExecutionTime = 0.228303 s  ClockTime = 0 s

Time = 74s

smoothSolver:  Solving for Ux, Initial residual = 0.00350707, Final residual = 0.000323089, No Iterations 5
smoothSolver:  Solving for Uy, Initial residual = 0.0192061, Final residual = 0.00150074, No Iterations 6
Pressure gradient source: uncorrected Ubar = 1.00045, pressure gradient = 3.24235
GAMG:  Solving for p, Initial residual = 0.000720599, Final residual = 6.15612e-05, No Iterations 13
time step continuity errors : sum local = 5.2434e-05, global = -2.51196e-17, cumulative = 2.83148e-16
Pressure gradient source: uncorrected Ubar = 1.00002, pressure gradient = 3.86805
smoothSolver:  Solving for omega, Initial residual = 0.000892488, Final residual = 6.72805e-05, No Iterations 6
smoothSolver:  Solving for k, Initial residual = 0.00594235, Final residual = 0.000490449, No Iterations 6
ExecutionTime = 0.231282 s  ClockTime = 0 s

Time = 75s

smoothSolver:  Solving for Ux, Initial residual = 0.00347804, Final residual = 0.000321448, No Iterations 5
smoothSolver:  Solving for Uy, Initial residual = 0.0191161, Final residual = 0.00149557, No Iterations 6
Pressure gradient source: uncorrected Ubar = 1.00045, pressure gradient = 3.20843
GAMG:  Solving for p, Initial residual = 0.000711547, Final residual = 6.25672e-05, No Iterations 13
time step continuity errors : sum local = 4.92682e-05, global = -6.12235e-18, cumulative = 2.77026e-16
Pressure gradient source: uncorrected Ubar = 1.00002, pressure gradient = 3.84244
smoothSolver:  Solving for omega, Initial residual = 0.000878881, Final residual = 6.72594e-05, No Iterations 6
smoothSolver:  Solving for k, Initial residual = 0.00591645, Final residual = 0.000490619, No Iterations 6
ExecutionTime = 0.23425 s  ClockTime = 0 s

Time = 76s

smoothSolver:  Solving for Ux, Initial residual = 0.00344964, Final residual = 0.000319799, No Iterations 5
smoothSolver:  Solving for Uy, Initial residual = 0.0188974, Final residual = 0.00148139, No Iterations 6
Pressure gradient source: uncorrected Ubar = 1.00044, pressure gradient = 3.17498
GAMG:  Solving for p, Initial residual = 0.0007238, Final residual = 6.25452e-05, No Iterations 13
time step continuity errors : sum local = 4.56379e-05, global = 1.0161e-17, cumulative = 2.87187e-16
Pressure gradient source: uncorrected Ubar = 1.00002, pressure gradient = 3.81534
smoothSolver:  Solving for omega, Initial residual = 0.000861848, Final residual = 6.5533e-05, No Iterations 6
smoothSolver:  Solving for k, Initial residual = 0.00587592, Final residual = 0.000486148, No Iterations 6
ExecutionTime = 0.23722 s  ClockTime = 0 s

Time = 77s

smoothSolver:  Solving for Ux, Initial residual = 0.00342189, Final residual = 0.000318221, No Iterations 5
smoothSolver:  Solving for Uy, Initial residual = 0.0187536, Final residual = 0.00147217, No Iterations 6
Pressure gradient source: uncorrected Ubar = 1.00044, pressure gradient = 3.14096
GAMG:  Solving for p, Initial residual = 0.000724854, Final residual = 6.40152e-05, No Iterations 13
time step continuity errors : sum local = 4.30423e-05, global = -3.58634e-17, cumulative = 2.51324e-16
Pressure gradient source: uncorrected Ubar = 1.00002, pressure gradient = 3.78686
smoothSolver:  Solving for omega, Initial residual = 0.000848551, Final residual = 6.5476e-05, No Iterations 6
smoothSolver:  Solving for k, Initial residual = 0.00583084, Final residual = 0.000482564, No Iterations 6
ExecutionTime = 0.240243 s  ClockTime = 0 s

Time = 78s

smoothSolver:  Solving for Ux, Initial residual = 0.00339598, Final residual = 0.000316643, No Iterations 5
smoothSolver:  Solving for Uy, Initial residual = 0.0185758, Final residual = 0.0014601, No Iterations 6
Pressure gradient source: uncorrected Ubar = 1.00044, pressure gradient = 3.10977
GAMG:  Solving for p, Initial residual = 0.000768004, Final residual = 6.59474e-05, No Iterations 17
time step continuity errors : sum local = 4.10718e-05, global = 8.33142e-18, cumulative = 2.59655e-16
Pressure gradient source: uncorrected Ubar = 1.00002, pressure gradient = 3.75768
smoothSolver:  Solving for omega, Initial residual = 0.000834808, Final residual = 6.40746e-05, No Iterations 6
smoothSolver:  Solving for k, Initial residual = 0.00579965, Final residual = 0.000479621, No Iterations 6
ExecutionTime = 0.243412 s  ClockTime = 0 s

Time = 79s

smoothSolver:  Solving for Ux, Initial residual = 0.00337104, Final residual = 0.000315117, No Iterations 5
smoothSolver:  Solving for Uy, Initial residual = 0.0183694, Final residual = 0.00144548, No Iterations 6
Pressure gradient source: uncorrected Ubar = 1.00044, pressure gradient = 3.06086
GAMG:  Solving for p, Initial residual = 0.000880084, Final residual = 8.44151e-05, No Iterations 15
time step continuity errors : sum local = 4.79954e-05, global = 1.15705e-17, cumulative = 2.71226e-16
Pressure gradient source: uncorrected Ubar = 1.00002, pressure gradient = 3.72484
smoothSolver:  Solving for omega, Initial residual = 0.000822054, Final residual = 6.38763e-05, No Iterations 6
smoothSolver:  Solving for k, Initial residual = 0.00576944, Final residual = 0.000478482, No Iterations 6
ExecutionTime = 0.246458 s  ClockTime = 0 s

Time = 80s

smoothSolver:  Solving for Ux, Initial residual = 0.00334725, Final residual = 0.000313723, No Iterations 5
smoothSolver:  Solving for Uy, Initial residual = 0.0184253, Final residual = 0.00144709, No Iterations 6
Pressure gradient source: uncorrected Ubar = 1.00044, pressure gradient = 3.02381
GAMG:  Solving for p, Initial residual = 0.000913996, Final residual = 8.62669e-05, No Iterations 15
time step continuity errors : sum local = 4.58487e-05, global = -1.56566e-17, cumulative = 2.55569e-16
Pressure gradient source: uncorrected Ubar = 1.00002, pressure gradient = 3.69099
smoothSolver:  Solving for omega, Initial residual = 0.000808535, Final residual = 6.23888e-05, No Iterations 6
smoothSolver:  Solving for k, Initial residual = 0.00573376, Final residual = 0.000474962, No Iterations 6
ExecutionTime = 0.249527 s  ClockTime = 0 s

Time = 81s

smoothSolver:  Solving for Ux, Initial residual = 0.00332405, Final residual = 0.000312512, No Iterations 5
smoothSolver:  Solving for Uy, Initial residual = 0.0184494, Final residual = 0.00145309, No Iterations 6
Pressure gradient source: uncorrected Ubar = 1.00044, pressure gradient = 2.97973
GAMG:  Solving for p, Initial residual = 0.000926491, Final residual = 9.17854e-05, No Iterations 15
time step continuity errors : sum local = 4.55416e-05, global = -2.97952e-17, cumulative = 2.25774e-16
Pressure gradient source: uncorrected Ubar = 1.00002, pressure gradient = 3.65501
smoothSolver:  Solving for omega, Initial residual = 0.000797564, Final residual = 6.20101e-05, No Iterations 6
smoothSolver:  Solving for k, Initial residual = 0.00569298, Final residual = 0.000471685, No Iterations 6
ExecutionTime = 0.252601 s  ClockTime = 0 s

Time = 82s

smoothSolver:  Solving for Ux, Initial residual = 0.00330143, Final residual = 0.000311309, No Iterations 5
smoothSolver:  Solving for Uy, Initial residual = 0.0182619, Final residual = 0.00144239, No Iterations 6
Pressure gradient source: uncorrected Ubar = 1.00043, pressure gradient = 2.94408
GAMG:  Solving for p, Initial residual = 0.000909181, Final residual = 7.6113e-05, No Iterations 17
time step continuity errors : sum local = 3.54579e-05, global = -4.56991e-17, cumulative = 1.80075e-16
Pressure gradient source: uncorrected Ubar = 1.00002, pressure gradient = 3.61875
smoothSolver:  Solving for omega, Initial residual = 0.000786863, Final residual = 6.19091e-05, No Iterations 6
smoothSolver:  Solving for k, Initial residual = 0.00567555, Final residual = 0.000471572, No Iterations 6
ExecutionTime = 0.255765 s  ClockTime = 0 s

Time = 83s

smoothSolver:  Solving for Ux, Initial residual = 0.00327925, Final residual = 0.000310135, No Iterations 5
smoothSolver:  Solving for Uy, Initial residual = 0.0181194, Final residual = 0.00143359, No Iterations 6
Pressure gradient source: uncorrected Ubar = 1.00044, pressure gradient = 2.89391
GAMG:  Solving for p, Initial residual = 0.000952665, Final residual = 9.44474e-05, No Iterations 15
time step continuity errors : sum local = 3.94658e-05, global = 4.29056e-17, cumulative = 2.2298e-16
Pressure gradient source: uncorrected Ubar = 1.00002, pressure gradient = 3.57969
smoothSolver:  Solving for omega, Initial residual = 0.000775213, Final residual = 6.02585e-05, No Iterations 6
smoothSolver:  Solving for k, Initial residual = 0.00564211, Final residual = 0.000469486, No Iterations 6
ExecutionTime = 0.258807 s  ClockTime = 0 s

Time = 84s

smoothSolver:  Solving for Ux, Initial residual = 0.0032585, Final residual = 0.000309016, No Iterations 5
smoothSolver:  Solving for Uy, Initial residual = 0.0180414, Final residual = 0.00143023, No Iterations 6
Pressure gradient source: uncorrected Ubar = 1.00043, pressure gradient = 2.8473
GAMG:  Solving for p, Initial residual = 0.000979316, Final residual = 9.56174e-05, No Iterations 15
time step continuity errors : sum local = 3.68604e-05, global = -2.60717e-17, cumulative = 1.96909e-16
Pressure gradient source: uncorrected Ubar = 1.00002, pressure gradient = 3.53892
smoothSolver:  Solving for omega, Initial residual = 0.000766345, Final residual = 6.01055e-05, No Iterations 6
smoothSolver:  Solving for k, Initial residual = 0.00560271, Final residual = 0.000464977, No Iterations 6
ExecutionTime = 0.261898 s  ClockTime = 0 s

Time = 85s

smoothSolver:  Solving for Ux, Initial residual = 0.00323872, Final residual = 0.000307908, No Iterations 5
smoothSolver:  Solving for Uy, Initial residual = 0.0178248, Final residual = 0.00141658, No Iterations 6
Pressure gradient source: uncorrected Ubar = 1.00043, pressure gradient = 2.79892
GAMG:  Solving for p, Initial residual = 0.00111613, Final residual = 9.47668e-05, No Iterations 15
time step continuity errors : sum local = 3.377e-05, global = 7.70461e-18, cumulative = 2.04613e-16
Pressure gradient source: uncorrected Ubar = 1.00002, pressure gradient = 3.49641
smoothSolver:  Solving for omega, Initial residual = 0.000757677, Final residual = 5.98878e-05, No Iterations 6
smoothSolver:  Solving for k, Initial residual = 0.00557247, Final residual = 0.000464349, No Iterations 6
ExecutionTime = 0.264951 s  ClockTime = 0 s

Time = 86s

smoothSolver:  Solving for Ux, Initial residual = 0.00321976, Final residual = 0.000306896, No Iterations 5
smoothSolver:  Solving for Uy, Initial residual = 0.0176872, Final residual = 0.00140312, No Iterations 6
Pressure gradient source: uncorrected Ubar = 1.00043, pressure gradient = 2.75148
GAMG:  Solving for p, Initial residual = 0.00114472, Final residual = 9.66619e-05, No Iterations 15
time step continuity errors : sum local = 3.16121e-05, global = 2.83383e-17, cumulative = 2.32952e-16
Pressure gradient source: uncorrected Ubar = 1.00003, pressure gradient = 3.45265
smoothSolver:  Solving for omega, Initial residual = 0.000748697, Final residual = 5.85802e-05, No Iterations 6
smoothSolver:  Solving for k, Initial residual = 0.00554699, Final residual = 0.000461384, No Iterations 6
ExecutionTime = 0.268051 s  ClockTime = 0 s

Time = 87s

smoothSolver:  Solving for Ux, Initial residual = 0.00320144, Final residual = 0.000306046, No Iterations 5
smoothSolver:  Solving for Uy, Initial residual = 0.0175668, Final residual = 0.00139428, No Iterations 6
Pressure gradient source: uncorrected Ubar = 1.00043, pressure gradient = 2.69441
GAMG:  Solving for p, Initial residual = 0.00114506, Final residual = 9.61691e-05, No Iterations 15
time step continuity errors : sum local = 2.89581e-05, global = -6.16437e-17, cumulative = 1.71308e-16
Pressure gradient source: uncorrected Ubar = 1.00003, pressure gradient = 3.40611
smoothSolver:  Solving for omega, Initial residual = 0.000742249, Final residual = 5.83307e-05, No Iterations 6
smoothSolver:  Solving for k, Initial residual = 0.00552339, Final residual = 0.000462071, No Iterations 6
ExecutionTime = 0.271139 s  ClockTime = 0 s

Time = 88s

smoothSolver:  Solving for Ux, Initial residual = 0.00318359, Final residual = 0.000305229, No Iterations 5
smoothSolver:  Solving for Uy, Initial residual = 0.0173397, Final residual = 0.00137539, No Iterations 6
Pressure gradient source: uncorrected Ubar = 1.00042, pressure gradient = 2.65319
GAMG:  Solving for p, Initial residual = 0.0011628, Final residual = 0.000115148, No Iterations 13
time step continuity errors : sum local = 3.16e-05, global = 7.3187e-17, cumulative = 2.44495e-16
Pressure gradient source: uncorrected Ubar = 1.00003, pressure gradient = 3.36014
smoothSolver:  Solving for omega, Initial residual = 0.000734519, Final residual = 5.80191e-05, No Iterations 6
smoothSolver:  Solving for k, Initial residual = 0.00548945, Final residual = 0.000458352, No Iterations 6
ExecutionTime = 0.274125 s  ClockTime = 0 s

Time = 89s

smoothSolver:  Solving for Ux, Initial residual = 0.00316633, Final residual = 0.000304431, No Iterations 5
smoothSolver:  Solving for Uy, Initial residual = 0.0171538, Final residual = 0.00136433, No Iterations 6
Pressure gradient source: uncorrected Ubar = 1.00042, pressure gradient = 2.59983
GAMG:  Solving for p, Initial residual = 0.00118002, Final residual = 0.000103319, No Iterations 15
time step continuity errors : sum local = 2.63976e-05, global = 4.69155e-17, cumulative = 2.9141e-16
[...]
smoothSolver:  Solving for omega, Initial residual = 6.72356e-06, Final residual = 6.72356e-06, No Iterations 0
smoothSolver:  Solving for k, Initial residual = 2.00858e-05, Final residual = 7.83027e-06, No Iterations 2
ExecutionTime = 8.48088 s  ClockTime = 8 s

Time = 3222s

smoothSolver:  Solving for Ux, Initial residual = 4.0323e-06, Final residual = 4.0323e-06, No Iterations 0
smoothSolver:  Solving for Uy, Initial residual = 0.0001145, Final residual = 1.10691e-05, No Iterations 4
Pressure gradient source: uncorrected Ubar = 1, pressure gradient = 0.00420627
GAMG:  Solving for p, Initial residual = 5.00212e-05, Final residual = 4.85345e-06, No Iterations 8
time step continuity errors : sum local = 2.45225e-10, global = 1.12646e-17, cumulative = -4.59825e-17
Pressure gradient source: uncorrected Ubar = 1, pressure gradient = 0.00420634
smoothSolver:  Solving for omega, Initial residual = 6.72356e-06, Final residual = 6.72356e-06, No Iterations 0
smoothSolver:  Solving for k, Initial residual = 2.00844e-05, Final residual = 7.82991e-06, No Iterations 2
ExecutionTime = 8.48349 s  ClockTime = 8 s

Time = 3223s

smoothSolver:  Solving for Ux, Initial residual = 3.99863e-06, Final residual = 3.99863e-06, No Iterations 0
smoothSolver:  Solving for Uy, Initial residual = 0.000113453, Final residual = 1.09675e-05, No Iterations 4
Pressure gradient source: uncorrected Ubar = 1, pressure gradient = 0.00420634
GAMG:  Solving for p, Initial residual = 4.97994e-05, Final residual = 4.85876e-06, No Iterations 8
time step continuity errors : sum local = 2.45628e-10, global = 6.41128e-18, cumulative = -3.95712e-17
Pressure gradient source: uncorrected Ubar = 1, pressure gradient = 0.00420642
smoothSolver:  Solving for omega, Initial residual = 6.72356e-06, Final residual = 6.72356e-06, No Iterations 0
smoothSolver:  Solving for k, Initial residual = 2.00826e-05, Final residual = 7.82942e-06, No Iterations 2
ExecutionTime = 8.48606 s  ClockTime = 8 s

Time = 3224s

smoothSolver:  Solving for Ux, Initial residual = 3.96645e-06, Final residual = 3.96645e-06, No Iterations 0
smoothSolver:  Solving for Uy, Initial residual = 0.000112463, Final residual = 1.08686e-05, No Iterations 4
Pressure gradient source: uncorrected Ubar = 1, pressure gradient = 0.00420642
GAMG:  Solving for p, Initial residual = 4.95817e-05, Final residual = 4.86505e-06, No Iterations 8
time step continuity errors : sum local = 2.46151e-10, global = 1.07654e-18, cumulative = -3.84947e-17
Pressure gradient source: uncorrected Ubar = 1, pressure gradient = 0.00420649
smoothSolver:  Solving for omega, Initial residual = 6.72356e-06, Final residual = 6.72356e-06, No Iterations 0
smoothSolver:  Solving for k, Initial residual = 2.00805e-05, Final residual = 7.82879e-06, No Iterations 2
ExecutionTime = 8.48871 s  ClockTime = 8 s

Time = 3225s

smoothSolver:  Solving for Ux, Initial residual = 3.93453e-06, Final residual = 3.93453e-06, No Iterations 0
smoothSolver:  Solving for Uy, Initial residual = 0.000111598, Final residual = 1.0778e-05, No Iterations 4
Pressure gradient source: uncorrected Ubar = 1, pressure gradient = 0.00420649
GAMG:  Solving for p, Initial residual = 4.93669e-05, Final residual = 4.86924e-06, No Iterations 8
time step continuity errors : sum local = 2.46582e-10, global = -6.44857e-19, cumulative = -3.91395e-17
Pressure gradient source: uncorrected Ubar = 1, pressure gradient = 0.00420656
smoothSolver:  Solving for omega, Initial residual = 6.72357e-06, Final residual = 6.72357e-06, No Iterations 0
smoothSolver:  Solving for k, Initial residual = 2.0078e-05, Final residual = 7.82802e-06, No Iterations 2
ExecutionTime = 8.49129 s  ClockTime = 8 s

Time = 3226s

smoothSolver:  Solving for Ux, Initial residual = 3.9026e-06, Final residual = 3.9026e-06, No Iterations 0
smoothSolver:  Solving for Uy, Initial residual = 0.000110778, Final residual = 1.06952e-05, No Iterations 4
Pressure gradient source: uncorrected Ubar = 1, pressure gradient = 0.00420656
GAMG:  Solving for p, Initial residual = 4.91527e-05, Final residual = 4.87673e-06, No Iterations 8
time step continuity errors : sum local = 2.47335e-10, global = -3.78924e-18, cumulative = -4.29288e-17
Pressure gradient source: uncorrected Ubar = 1, pressure gradient = 0.00420664
smoothSolver:  Solving for omega, Initial residual = 6.72357e-06, Final residual = 6.72357e-06, No Iterations 0
smoothSolver:  Solving for k, Initial residual = 2.00752e-05, Final residual = 7.82713e-06, No Iterations 2
ExecutionTime = 8.49388 s  ClockTime = 8 s

Time = 3227s

smoothSolver:  Solving for Ux, Initial residual = 3.87066e-06, Final residual = 3.87066e-06, No Iterations 0
smoothSolver:  Solving for Uy, Initial residual = 0.000109981, Final residual = 1.06098e-05, No Iterations 4
Pressure gradient source: uncorrected Ubar = 1, pressure gradient = 0.00420664
GAMG:  Solving for p, Initial residual = 4.89433e-05, Final residual = 4.88221e-06, No Iterations 8
time step continuity errors : sum local = 2.47858e-10, global = -5.84794e-18, cumulative = -4.87767e-17
Pressure gradient source: uncorrected Ubar = 1, pressure gradient = 0.00420671
smoothSolver:  Solving for omega, Initial residual = 6.72358e-06, Final residual = 6.72358e-06, No Iterations 0
smoothSolver:  Solving for k, Initial residual = 2.00721e-05, Final residual = 7.8261e-06, No Iterations 2
ExecutionTime = 8.49649 s  ClockTime = 8 s

Time = 3228s

smoothSolver:  Solving for Ux, Initial residual = 3.84013e-06, Final residual = 3.84013e-06, No Iterations 0
smoothSolver:  Solving for Uy, Initial residual = 0.000109209, Final residual = 1.05302e-05, No Iterations 4
Pressure gradient source: uncorrected Ubar = 1, pressure gradient = 0.00420671
GAMG:  Solving for p, Initial residual = 4.87322e-05, Final residual = 4.0051e-06, No Iterations 9
time step continuity errors : sum local = 2.08504e-10, global = 3.85e-19, cumulative = -4.83917e-17
Pressure gradient source: uncorrected Ubar = 1, pressure gradient = 0.00420679
smoothSolver:  Solving for omega, Initial residual = 6.72358e-06, Final residual = 6.72358e-06, No Iterations 0
smoothSolver:  Solving for k, Initial residual = 2.00686e-05, Final residual = 7.82494e-06, No Iterations 2
ExecutionTime = 8.49912 s  ClockTime = 8 s

Time = 3229s

smoothSolver:  Solving for Ux, Initial residual = 3.81002e-06, Final residual = 3.81002e-06, No Iterations 0
smoothSolver:  Solving for Uy, Initial residual = 0.000108807, Final residual = 1.05e-05, No Iterations 4
Pressure gradient source: uncorrected Ubar = 1, pressure gradient = 0.00420679
GAMG:  Solving for p, Initial residual = 4.81054e-05, Final residual = 4.74179e-06, No Iterations 8
time step continuity errors : sum local = 2.41077e-10, global = 3.77248e-18, cumulative = -4.46192e-17
Pressure gradient source: uncorrected Ubar = 1, pressure gradient = 0.00420686
smoothSolver:  Solving for omega, Initial residual = 6.72359e-06, Final residual = 6.72359e-06, No Iterations 0
smoothSolver:  Solving for k, Initial residual = 2.00647e-05, Final residual = 7.82365e-06, No Iterations 2
ExecutionTime = 8.50172 s  ClockTime = 8 s

Time = 3230s

smoothSolver:  Solving for Ux, Initial residual = 3.77989e-06, Final residual = 3.77989e-06, No Iterations 0
smoothSolver:  Solving for Uy, Initial residual = 0.000107975, Final residual = 1.04046e-05, No Iterations 4
Pressure gradient source: uncorrected Ubar = 1, pressure gradient = 0.00420686
GAMG:  Solving for p, Initial residual = 4.81156e-05, Final residual = 4.77279e-06, No Iterations 8
time step continuity errors : sum local = 2.42785e-10, global = 2.85707e-18, cumulative = -4.17622e-17
Pressure gradient source: uncorrected Ubar = 1, pressure gradient = 0.00420693
smoothSolver:  Solving for omega, Initial residual = 6.72359e-06, Final residual = 6.72359e-06, No Iterations 0
smoothSolver:  Solving for k, Initial residual = 2.00606e-05, Final residual = 7.82223e-06, No Iterations 2
ExecutionTime = 8.50431 s  ClockTime = 8 s

Time = 3231s

smoothSolver:  Solving for Ux, Initial residual = 3.74974e-06, Final residual = 3.74974e-06, No Iterations 0
smoothSolver:  Solving for Uy, Initial residual = 0.000107192, Final residual = 1.03052e-05, No Iterations 4
Pressure gradient source: uncorrected Ubar = 1, pressure gradient = 0.00420693
GAMG:  Solving for p, Initial residual = 4.80051e-05, Final residual = 4.8002e-06, No Iterations 8
time step continuity errors : sum local = 2.4442e-10, global = -1.66431e-18, cumulative = -4.34265e-17
Pressure gradient source: uncorrected Ubar = 1, pressure gradient = 0.00420701
smoothSolver:  Solving for omega, Initial residual = 6.7236e-06, Final residual = 6.7236e-06, No Iterations 0
smoothSolver:  Solving for k, Initial residual = 2.0056e-05, Final residual = 7.82068e-06, No Iterations 2
ExecutionTime = 8.50694 s  ClockTime = 8 s

Time = 3232s

smoothSolver:  Solving for Ux, Initial residual = 3.71958e-06, Final residual = 3.71958e-06, No Iterations 0
smoothSolver:  Solving for Uy, Initial residual = 0.000106405, Final residual = 1.02037e-05, No Iterations 4
Pressure gradient source: uncorrected Ubar = 1, pressure gradient = 0.00420701
GAMG:  Solving for p, Initial residual = 4.78408e-05, Final residual = 3.93773e-06, No Iterations 9
time step continuity errors : sum local = 2.05706e-10, global = -5.10436e-18, cumulative = -4.85308e-17
Pressure gradient source: uncorrected Ubar = 1, pressure gradient = 0.00420708
smoothSolver:  Solving for omega, Initial residual = 6.72361e-06, Final residual = 6.72361e-06, No Iterations 0
smoothSolver:  Solving for k, Initial residual = 2.00512e-05, Final residual = 7.819e-06, No Iterations 2
ExecutionTime = 8.5096 s  ClockTime = 8 s

Time = 3233s

smoothSolver:  Solving for Ux, Initial residual = 3.69161e-06, Final residual = 3.69161e-06, No Iterations 0
smoothSolver:  Solving for Uy, Initial residual = 0.000105986, Final residual = 1.01588e-05, No Iterations 4
Pressure gradient source: uncorrected Ubar = 1, pressure gradient = 0.00420708
GAMG:  Solving for p, Initial residual = 4.72584e-05, Final residual = 4.68389e-06, No Iterations 8
time step continuity errors : sum local = 2.38699e-10, global = 6.47246e-18, cumulative = -4.20584e-17
Pressure gradient source: uncorrected Ubar = 1, pressure gradient = 0.00420715
smoothSolver:  Solving for omega, Initial residual = 6.72362e-06, Final residual = 6.72362e-06, No Iterations 0
smoothSolver:  Solving for k, Initial residual = 2.0046e-05, Final residual = 7.81719e-06, No Iterations 2
ExecutionTime = 8.51219 s  ClockTime = 8 s

Time = 3234s

smoothSolver:  Solving for Ux, Initial residual = 3.66577e-06, Final residual = 3.66577e-06, No Iterations 0
smoothSolver:  Solving for Uy, Initial residual = 0.000105253, Final residual = 1.00429e-05, No Iterations 4
Pressure gradient source: uncorrected Ubar = 1, pressure gradient = 0.00420715
GAMG:  Solving for p, Initial residual = 4.72639e-05, Final residual = 3.85598e-06, No Iterations 9
time step continuity errors : sum local = 2.01582e-10, global = -6.74786e-18, cumulative = -4.88062e-17
Pressure gradient source: uncorrected Ubar = 1, pressure gradient = 0.00420723
smoothSolver:  Solving for omega, Initial residual = 6.72362e-06, Final residual = 6.72362e-06, No Iterations 0
smoothSolver:  Solving for k, Initial residual = 2.00405e-05, Final residual = 7.81525e-06, No Iterations 2
ExecutionTime = 8.51483 s  ClockTime = 8 s

Time = 3235s

smoothSolver:  Solving for Ux, Initial residual = 3.64051e-06, Final residual = 3.64051e-06, No Iterations 0
smoothSolver:  Solving for Uy, Initial residual = 0.000104837, Final residual = 9.98296e-06, No Iterations 4
Pressure gradient source: uncorrected Ubar = 1, pressure gradient = 0.00420723
GAMG:  Solving for p, Initial residual = 4.67887e-05, Final residual = 4.60142e-06, No Iterations 8
time step continuity errors : sum local = 2.34739e-10, global = -7.36274e-19, cumulative = -4.95425e-17
Pressure gradient source: uncorrected Ubar = 1, pressure gradient = 0.0042073
smoothSolver:  Solving for omega, Initial residual = 6.72363e-06, Final residual = 6.72363e-06, No Iterations 0
smoothSolver:  Solving for k, Initial residual = 2.00347e-05, Final residual = 7.81319e-06, No Iterations 2
ExecutionTime = 8.51747 s  ClockTime = 8 s

Time = 3236s

smoothSolver:  Solving for Ux, Initial residual = 3.61559e-06, Final residual = 3.61559e-06, No Iterations 0
smoothSolver:  Solving for Uy, Initial residual = 0.000104197, Final residual = 9.84879e-06, No Iterations 4
Pressure gradient source: uncorrected Ubar = 1, pressure gradient = 0.0042073
GAMG:  Solving for p, Initial residual = 4.68155e-05, Final residual = 4.66989e-06, No Iterations 8
time step continuity errors : sum local = 2.38185e-10, global = -3.43246e-18, cumulative = -5.2975e-17
Pressure gradient source: uncorrected Ubar = 1, pressure gradient = 0.00420737
smoothSolver:  Solving for omega, Initial residual = 6.72364e-06, Final residual = 6.72364e-06, No Iterations 0
smoothSolver:  Solving for k, Initial residual = 2.00285e-05, Final residual = 7.811e-06, No Iterations 2
ExecutionTime = 8.52006 s  ClockTime = 8 s

Time = 3237s

smoothSolver:  Solving for Ux, Initial residual = 3.59063e-06, Final residual = 3.59063e-06, No Iterations 0
smoothSolver:  Solving for Uy, Initial residual = 0.000103547, Final residual = 9.72638e-06, No Iterations 4
Pressure gradient source: uncorrected Ubar = 1, pressure gradient = 0.00420737
GAMG:  Solving for p, Initial residual = 4.67312e-05, Final residual = 3.83763e-06, No Iterations 9
time step continuity errors : sum local = 2.0097e-10, global = 3.62907e-18, cumulative = -4.93459e-17
Pressure gradient source: uncorrected Ubar = 1, pressure gradient = 0.00420745
smoothSolver:  Solving for omega, Initial residual = 6.72365e-06, Final residual = 6.72365e-06, No Iterations 0
smoothSolver:  Solving for k, Initial residual = 2.00221e-05, Final residual = 7.80868e-06, No Iterations 2
ExecutionTime = 8.52269 s  ClockTime = 8 s

Time = 3238s

smoothSolver:  Solving for Ux, Initial residual = 3.56563e-06, Final residual = 3.56563e-06, No Iterations 0
smoothSolver:  Solving for Uy, Initial residual = 0.000103164, Final residual = 9.6629e-06, No Iterations 4
Pressure gradient source: uncorrected Ubar = 1, pressure gradient = 0.00420745
GAMG:  Solving for p, Initial residual = 4.6226e-05, Final residual = 4.57822e-06, No Iterations 8
time step continuity errors : sum local = 2.33741e-10, global = 1.78865e-18, cumulative = -4.75573e-17
Pressure gradient source: uncorrected Ubar = 1, pressure gradient = 0.00420752
smoothSolver:  Solving for omega, Initial residual = 6.72366e-06, Final residual = 6.72366e-06, No Iterations 0
smoothSolver:  Solving for k, Initial residual = 2.00152e-05, Final residual = 7.80624e-06, No Iterations 2
ExecutionTime = 8.52527 s  ClockTime = 8 s

Time = 3239s

smoothSolver:  Solving for Ux, Initial residual = 3.54132e-06, Final residual = 3.54132e-06, No Iterations 0
smoothSolver:  Solving for Uy, Initial residual = 0.000102511, Final residual = 9.5294e-06, No Iterations 4
Pressure gradient source: uncorrected Ubar = 1, pressure gradient = 0.00420752
GAMG:  Solving for p, Initial residual = 4.62322e-05, Final residual = 3.76749e-06, No Iterations 9
time step continuity errors : sum local = 1.97362e-10, global = 1.02474e-18, cumulative = -4.65325e-17
Pressure gradient source: uncorrected Ubar = 1, pressure gradient = 0.00420759
smoothSolver:  Solving for omega, Initial residual = 6.72367e-06, Final residual = 6.72367e-06, No Iterations 0
smoothSolver:  Solving for k, Initial residual = 2.00081e-05, Final residual = 7.80367e-06, No Iterations 2
ExecutionTime = 8.52792 s  ClockTime = 8 s

Time = 3240s

smoothSolver:  Solving for Ux, Initial residual = 3.51716e-06, Final residual = 3.51716e-06, No Iterations 0
smoothSolver:  Solving for Uy, Initial residual = 0.000102109, Final residual = 9.46396e-06, No Iterations 4
Pressure gradient source: uncorrected Ubar = 1, pressure gradient = 0.00420759
GAMG:  Solving for p, Initial residual = 4.57993e-05, Final residual = 4.48795e-06, No Iterations 8
time step continuity errors : sum local = 2.2926e-10, global = 7.77566e-19, cumulative = -4.57549e-17
Pressure gradient source: uncorrected Ubar = 1, pressure gradient = 0.00420767
smoothSolver:  Solving for omega, Initial residual = 6.72368e-06, Final residual = 6.72368e-06, No Iterations 0
smoothSolver:  Solving for k, Initial residual = 2.00007e-05, Final residual = 7.80097e-06, No Iterations 2
ExecutionTime = 8.5305 s  ClockTime = 8 s

Time = 3241s

smoothSolver:  Solving for Ux, Initial residual = 3.49398e-06, Final residual = 3.49398e-06, No Iterations 0
smoothSolver:  Solving for Uy, Initial residual = 0.000101402, Final residual = 9.32362e-06, No Iterations 4
Pressure gradient source: uncorrected Ubar = 1, pressure gradient = 0.00420767
GAMG:  Solving for p, Initial residual = 4.58007e-05, Final residual = 4.56503e-06, No Iterations 8
time step continuity errors : sum local = 2.32994e-10, global = -6.37818e-19, cumulative = -4.63928e-17
Pressure gradient source: uncorrected Ubar = 1, pressure gradient = 0.00420774
smoothSolver:  Solving for omega, Initial residual = 6.72369e-06, Final residual = 6.72369e-06, No Iterations 0
smoothSolver:  Solving for k, Initial residual = 1.99929e-05, Final residual = 7.79816e-06, No Iterations 2
ExecutionTime = 8.53311 s  ClockTime = 8 s

Time = 3242s

smoothSolver:  Solving for Ux, Initial residual = 3.47162e-06, Final residual = 3.47162e-06, No Iterations 0
smoothSolver:  Solving for Uy, Initial residual = 0.000100718, Final residual = 9.19715e-06, No Iterations 4
Pressure gradient source: uncorrected Ubar = 1, pressure gradient = 0.00420774
GAMG:  Solving for p, Initial residual = 4.57174e-05, Final residual = 3.7374e-06, No Iterations 9
time step continuity errors : sum local = 1.95893e-10, global = 9.05815e-18, cumulative = -3.73346e-17
Pressure gradient source: uncorrected Ubar = 1, pressure gradient = 0.00420781
smoothSolver:  Solving for omega, Initial residual = 6.7237e-06, Final residual = 6.7237e-06, No Iterations 0
smoothSolver:  Solving for k, Initial residual = 1.99848e-05, Final residual = 7.79522e-06, No Iterations 2
ExecutionTime = 8.53579 s  ClockTime = 8 s

Time = 3243s

smoothSolver:  Solving for Ux, Initial residual = 3.44921e-06, Final residual = 3.44921e-06, No Iterations 0
smoothSolver:  Solving for Uy, Initial residual = 0.000100297, Final residual = 9.12936e-06, No Iterations 4
Pressure gradient source: uncorrected Ubar = 1, pressure gradient = 0.00420781
GAMG:  Solving for p, Initial residual = 4.52503e-05, Final residual = 4.51324e-06, No Iterations 7
time step continuity errors : sum local = 2.32281e-10, global = -7.72134e-19, cumulative = -3.81067e-17
Pressure gradient source: uncorrected Ubar = 1, pressure gradient = 0.00420789
smoothSolver:  Solving for omega, Initial residual = 6.72372e-06, Final residual = 6.72372e-06, No Iterations 0
smoothSolver:  Solving for k, Initial residual = 1.99764e-05, Final residual = 7.79215e-06, No Iterations 2
ExecutionTime = 8.53832 s  ClockTime = 8 s

Time = 3244s

smoothSolver:  Solving for Ux, Initial residual = 3.42737e-06, Final residual = 3.42737e-06, No Iterations 0
smoothSolver:  Solving for Uy, Initial residual = 9.93583e-05, Final residual = 8.90407e-06, No Iterations 4
Pressure gradient source: uncorrected Ubar = 1, pressure gradient = 0.00420789
GAMG:  Solving for p, Initial residual = 4.54497e-05, Final residual = 4.478e-06, No Iterations 7
time step continuity errors : sum local = 2.31857e-10, global = 6.24828e-18, cumulative = -3.18585e-17
Pressure gradient source: uncorrected Ubar = 1, pressure gradient = 0.00420796
smoothSolver:  Solving for omega, Initial residual = 6.72373e-06, Final residual = 6.72373e-06, No Iterations 0
smoothSolver:  Solving for k, Initial residual = 1.99677e-05, Final residual = 7.78896e-06, No Iterations 2
ExecutionTime = 8.54088 s  ClockTime = 8 s


SIMPLE solution converged in 3244 iterations

End

