/*---------------------------------------------------------------------------*\
  =========                 |
  \\      /  F ield         | OpenFOAM: The Open Source CFD Toolbox
   \\    /   O peration     | Website:  https://openfoam.org
    \\  /    A nd           | Version:  10
     \\/     M anipulation  |
\*---------------------------------------------------------------------------*/
Build  : 10-e450dce21ea5
Exec   : blockMesh
Date   : Jan 16 2023
Time   : 11:43:28
Host   : "w530-R9YK46P"
PID    : 14349
I/O    : uncollated
Case   : /home/jdmezazeron/gitDanielMezaZ/turbulenceVisualized/Data/SimulationFiles/E18_Re3874
nProcs : 1
sigFpe : Enabling floating point exception trapping (FOAM_SIGFPE).
fileModificationChecking : Monitoring run-time modified files using timeStampMaster (fileModificationSkew 10)
allowSystemOperations : Allowing user-supplied system call operations

// * * * * * * * * * * * * * * * * * * * * * * * * * * * * * * * * * * * * * //
Create time

Reading "blockMeshDict"

Creating block mesh from
    "system/blockMeshDict"
Creating block edges
No non-planar block faces defined
Creating topology blocks
Creating topology patches

Creating block mesh topology

Check topology

	Basic statistics
		Number of internal faces : 0
		Number of boundary faces : 6
		Number of defined boundary faces : 6
		Number of undefined boundary faces : 0
	Checking patch -> block consistency

Creating block offsets
Creating merge list .

Creating polyMesh from blockMesh
Creating patches
Creating cells
Creating points with scale 1
    Block 0 cell size :
        i : 0.5
        j : 0.00921276 .. 0.036851
        k : 2

Detected cyclic patches; ordering boundary faces

Writing polyMesh
----------------
Mesh Information
----------------
  boundingBox: (-1 0 -1) (1 1 1)
  nPoints: 510
  nCells: 200
  nFaces: 854
  nInternalFaces: 346
----------------
Patches
----------------
  patch 0 (start: 346 size: 50) name: inlet
  patch 1 (start: 396 size: 50) name: outlet
  patch 2 (start: 446 size: 4) name: fixedWalls-bottom
  patch 3 (start: 450 size: 4) name: fixedWalls-top
  patch 4 (start: 454 size: 400) name: frontAndBack

End

/*---------------------------------------------------------------------------*\
  =========                 |
  \\      /  F ield         | OpenFOAM: The Open Source CFD Toolbox
   \\    /   O peration     | Website:  https://openfoam.org
    \\  /    A nd           | Version:  10
     \\/     M anipulation  |
\*---------------------------------------------------------------------------*/
Build  : 10-e450dce21ea5
Exec   : simpleFoam
Date   : Jan 16 2023
Time   : 11:43:28
Host   : "w530-R9YK46P"
PID    : 14350
I/O    : uncollated
Case   : /home/jdmezazeron/gitDanielMezaZ/turbulenceVisualized/Data/SimulationFiles/E18_Re3874
nProcs : 1
sigFpe : Enabling floating point exception trapping (FOAM_SIGFPE).
fileModificationChecking : Monitoring run-time modified files using timeStampMaster (fileModificationSkew 10)
allowSystemOperations : Allowing user-supplied system call operations

// * * * * * * * * * * * * * * * * * * * * * * * * * * * * * * * * * * * * * //
Create time

Create mesh for time = 0


SIMPLE: Convergence criteria found
        U: tolerance 0.01
        p: tolerance 0.01
        omega: tolerance 0.0001

Reading field p

Reading field U

Reading/calculating face flux field phi

Selecting viscosity model Newtonian
Selecting turbulence model type RAS
Selecting RAS turbulence model kOmegaSST
Selecting patchDistMethod meshWave
RAS
{
    RASModel        kOmegaSST;
    turbulence      on;
    printCoeffs     on;
    alphaK1         0.85;
    alphaK2         1;
    alphaOmega1     0.5;
    alphaOmega2     0.856;
    gamma1          0.555556;
    gamma2          0.44;
    beta1           0.075;
    beta2           0.0828;
    betaStar        0.09;
    a1              0.31;
    b1              1;
    c1              10;
    F3              false;
}

No MRF models present

--> FOAM Warning : Creating fvModels from "system/fvOptions" rather than constant/fvModels
No fvModels present
--> FOAM Warning : Creating fvConstraints from "system/fvOptions"

Selecting finite volume constraint type meanVelocityForce
    Name: momentumSource
    - selecting all cells
    - selected 200 cell(s) with volume 4
    Initial pressure gradient = 0


Starting time loop

turbulenceFields stressComponents: storing fields:
    R

Time = 1s

smoothSolver:  Solving for Ux, Initial residual = 0, Final residual = 0, No Iterations 0
smoothSolver:  Solving for Uy, Initial residual = 0, Final residual = 0, No Iterations 0
Pressure gradient source: uncorrected Ubar = 0, pressure gradient = 2.68906
GAMG:  Solving for p, Initial residual = 0.99999, Final residual = 0.0872885, No Iterations 2
time step continuity errors : sum local = 6.10319e-17, global = 4.85954e-18, cumulative = 4.85954e-18
Pressure gradient source: uncorrected Ubar = 0.869374, pressure gradient = 0.351263
smoothSolver:  Solving for omega, Initial residual = 0.0893329, Final residual = 0.0068042, No Iterations 1
bounding omega, min: -9.20351 max: 1946.21 average: 75.6792
smoothSolver:  Solving for k, Initial residual = 1, Final residual = 0.094235, No Iterations 1
ExecutionTime = 0.01265 s  ClockTime = 0 s

Time = 2s

smoothSolver:  Solving for Ux, Initial residual = 0.214218, Final residual = 0.0154414, No Iterations 6
smoothSolver:  Solving for Uy, Initial residual = 1, Final residual = 0.0829079, No Iterations 2
Pressure gradient source: uncorrected Ubar = 1.28103, pressure gradient = -1.97786
GAMG:  Solving for p, Initial residual = 1, Final residual = 0.0961185, No Iterations 7
time step continuity errors : sum local = 0.00583917, global = -4.26901e-19, cumulative = 4.43264e-18
Pressure gradient source: uncorrected Ubar = 1.05531, pressure gradient = -0.107146
smoothSolver:  Solving for omega, Initial residual = 0.0540009, Final residual = 0.00150624, No Iterations 1
smoothSolver:  Solving for k, Initial residual = 0.274306, Final residual = 0.0208065, No Iterations 3
ExecutionTime = 0.014931 s  ClockTime = 0 s

Time = 3s

smoothSolver:  Solving for Ux, Initial residual = 0.200724, Final residual = 0.0152141, No Iterations 5
smoothSolver:  Solving for Uy, Initial residual = 0.532485, Final residual = 0.0263806, No Iterations 3
Pressure gradient source: uncorrected Ubar = 0.904124, pressure gradient = 0.875125
GAMG:  Solving for p, Initial residual = 0.160307, Final residual = 0.0141696, No Iterations 5
time step continuity errors : sum local = 0.00314344, global = -5.90381e-19, cumulative = 3.84226e-18
Pressure gradient source: uncorrected Ubar = 0.986911, pressure gradient = 0.0269512
smoothSolver:  Solving for omega, Initial residual = 0.00955179, Final residual = 0.000700716, No Iterations 1
smoothSolver:  Solving for k, Initial residual = 0.129168, Final residual = 0.00799165, No Iterations 2
ExecutionTime = 0.01709 s  ClockTime = 0 s

Time = 4s

smoothSolver:  Solving for Ux, Initial residual = 0.0782959, Final residual = 0.00560686, No Iterations 4
smoothSolver:  Solving for Uy, Initial residual = 0.396434, Final residual = 0.0191885, No Iterations 3
Pressure gradient source: uncorrected Ubar = 1.00887, pressure gradient = -0.0671319
GAMG:  Solving for p, Initial residual = 0.0835827, Final residual = 0.00820249, No Iterations 8
time step continuity errors : sum local = 0.00213417, global = 2.00577e-18, cumulative = 5.84804e-18
Pressure gradient source: uncorrected Ubar = 1.0011, pressure gradient = 0.0153171
smoothSolver:  Solving for omega, Initial residual = 0.00817503, Final residual = 0.000414349, No Iterations 1
smoothSolver:  Solving for k, Initial residual = 0.06817, Final residual = 0.00274637, No Iterations 3
ExecutionTime = 0.019288 s  ClockTime = 0 s

Time = 5s

smoothSolver:  Solving for Ux, Initial residual = 0.0438057, Final residual = 0.00390203, No Iterations 4
smoothSolver:  Solving for Uy, Initial residual = 0.446047, Final residual = 0.0206888, No Iterations 3
Pressure gradient source: uncorrected Ubar = 1.00253, pressure gradient = -0.0122949
GAMG:  Solving for p, Initial residual = 0.135745, Final residual = 0.0119562, No Iterations 5
time step continuity errors : sum local = 0.00155273, global = 2.57498e-19, cumulative = 6.10553e-18
Pressure gradient source: uncorrected Ubar = 1.00034, pressure gradient = 0.011555
smoothSolver:  Solving for omega, Initial residual = 0.00341962, Final residual = 0.000246688, No Iterations 1
smoothSolver:  Solving for k, Initial residual = 0.0519314, Final residual = 0.00351599, No Iterations 3
ExecutionTime = 0.021345 s  ClockTime = 0 s

Time = 6s

smoothSolver:  Solving for Ux, Initial residual = 0.0280549, Final residual = 0.0020334, No Iterations 5
smoothSolver:  Solving for Uy, Initial residual = 0.533431, Final residual = 0.0229138, No Iterations 3
Pressure gradient source: uncorrected Ubar = 1.00188, pressure gradient = -0.0093896
GAMG:  Solving for p, Initial residual = 0.146083, Final residual = 0.00975613, No Iterations 10
time step continuity errors : sum local = 0.000716726, global = -2.80527e-18, cumulative = 3.30027e-18
Pressure gradient source: uncorrected Ubar = 1.00026, pressure gradient = 0.00868433
smoothSolver:  Solving for omega, Initial residual = 0.00221731, Final residual = 0.000168542, No Iterations 1
smoothSolver:  Solving for k, Initial residual = 0.0424095, Final residual = 0.00393465, No Iterations 3
ExecutionTime = 0.023456 s  ClockTime = 0 s

Time = 7s

smoothSolver:  Solving for Ux, Initial residual = 0.0205805, Final residual = 0.00166954, No Iterations 5
smoothSolver:  Solving for Uy, Initial residual = 0.663344, Final residual = 0.0305317, No Iterations 3
Pressure gradient source: uncorrected Ubar = 1.00101, pressure gradient = -0.00282331
GAMG:  Solving for p, Initial residual = 0.110894, Final residual = 0.00650117, No Iterations 10
time step continuity errors : sum local = 0.00039501, global = 9.20047e-18, cumulative = 1.25007e-17
Pressure gradient source: uncorrected Ubar = 1.00013, pressure gradient = 0.00721507
smoothSolver:  Solving for omega, Initial residual = 0.00119502, Final residual = 6.10631e-05, No Iterations 2
smoothSolver:  Solving for k, Initial residual = 0.0409026, Final residual = 0.00298103, No Iterations 4
ExecutionTime = 0.025608 s  ClockTime = 0 s

Time = 8s

smoothSolver:  Solving for Ux, Initial residual = 0.016885, Final residual = 0.00148723, No Iterations 5
smoothSolver:  Solving for Uy, Initial residual = 0.684227, Final residual = 0.0380407, No Iterations 3
Pressure gradient source: uncorrected Ubar = 1.00066, pressure gradient = -0.000674956
GAMG:  Solving for p, Initial residual = 0.0900586, Final residual = 0.00481052, No Iterations 4
time step continuity errors : sum local = 0.00032869, global = 1.07912e-17, cumulative = 2.32919e-17
Pressure gradient source: uncorrected Ubar = 1.00007, pressure gradient = 0.00634378
smoothSolver:  Solving for omega, Initial residual = 0.00074222, Final residual = 3.99142e-05, No Iterations 2
smoothSolver:  Solving for k, Initial residual = 0.0369576, Final residual = 0.00234028, No Iterations 4
ExecutionTime = 0.027528 s  ClockTime = 0 s

Time = 9s

smoothSolver:  Solving for Ux, Initial residual = 0.0142622, Final residual = 0.00136556, No Iterations 5
smoothSolver:  Solving for Uy, Initial residual = 0.691963, Final residual = 0.0379394, No Iterations 3
Pressure gradient source: uncorrected Ubar = 1.00045, pressure gradient = 0.000751718
GAMG:  Solving for p, Initial residual = 0.0717155, Final residual = 0.00700487, No Iterations 7
time step continuity errors : sum local = 0.000442731, global = 6.68902e-18, cumulative = 2.9981e-17
Pressure gradient source: uncorrected Ubar = 1.00004, pressure gradient = 0.00581927
smoothSolver:  Solving for omega, Initial residual = 0.000445987, Final residual = 2.98502e-05, No Iterations 2
smoothSolver:  Solving for k, Initial residual = 0.037243, Final residual = 0.00354558, No Iterations 4
ExecutionTime = 0.029566 s  ClockTime = 0 s

Time = 10s

smoothSolver:  Solving for Ux, Initial residual = 0.0125129, Final residual = 0.000860967, No Iterations 6
smoothSolver:  Solving for Uy, Initial residual = 0.549557, Final residual = 0.027254, No Iterations 3
Pressure gradient source: uncorrected Ubar = 1.00041, pressure gradient = 0.000556683
GAMG:  Solving for p, Initial residual = 0.06921, Final residual = 0.00572094, No Iterations 7
time step continuity errors : sum local = 0.000343952, global = -7.68757e-18, cumulative = 2.22934e-17
Pressure gradient source: uncorrected Ubar = 1.00004, pressure gradient = 0.00528142
smoothSolver:  Solving for omega, Initial residual = 0.000278519, Final residual = 2.37437e-05, No Iterations 2
smoothSolver:  Solving for k, Initial residual = 0.03441, Final residual = 0.00208439, No Iterations 5
ExecutionTime = 0.031659 s  ClockTime = 0 s

Time = 11s

smoothSolver:  Solving for Ux, Initial residual = 0.0114632, Final residual = 0.000805948, No Iterations 6
smoothSolver:  Solving for Uy, Initial residual = 0.416924, Final residual = 0.0189897, No Iterations 3
Pressure gradient source: uncorrected Ubar = 1.00037, pressure gradient = 0.000350398
GAMG:  Solving for p, Initial residual = 0.0737895, Final residual = 0.00469051, No Iterations 9
time step continuity errors : sum local = 0.000206197, global = 6.67316e-18, cumulative = 2.89666e-17
Pressure gradient source: uncorrected Ubar = 1.00004, pressure gradient = 0.00474442
smoothSolver:  Solving for omega, Initial residual = 0.000173935, Final residual = 1.47665e-05, No Iterations 3
smoothSolver:  Solving for k, Initial residual = 0.0266409, Final residual = 0.00244777, No Iterations 4
ExecutionTime = 0.03401 s  ClockTime = 0 s

Time = 12s

smoothSolver:  Solving for Ux, Initial residual = 0.010356, Final residual = 0.000752476, No Iterations 6
smoothSolver:  Solving for Uy, Initial residual = 0.35367, Final residual = 0.0162088, No Iterations 3
Pressure gradient source: uncorrected Ubar = 1.00035, pressure gradient = -5.80589e-05
GAMG:  Solving for p, Initial residual = 0.0826159, Final residual = 0.00589467, No Iterations 8
time step continuity errors : sum local = 0.000166423, global = 3.92806e-18, cumulative = 3.28946e-17
Pressure gradient source: uncorrected Ubar = 1.00004, pressure gradient = 0.00421279
smoothSolver:  Solving for omega, Initial residual = 0.000123165, Final residual = 1.14049e-05, No Iterations 3
smoothSolver:  Solving for k, Initial residual = 0.0222466, Final residual = 0.00131946, No Iterations 5
ExecutionTime = 0.036244 s  ClockTime = 0 s

Time = 13s

smoothSolver:  Solving for Ux, Initial residual = 0.00920326, Final residual = 0.000705046, No Iterations 6
smoothSolver:  Solving for Uy, Initial residual = 0.378956, Final residual = 0.0199182, No Iterations 3
Pressure gradient source: uncorrected Ubar = 1.00024, pressure gradient = 0.000914959
GAMG:  Solving for p, Initial residual = 0.0920423, Final residual = 0.00824133, No Iterations 7
time step continuity errors : sum local = 0.00018254, global = 3.60233e-18, cumulative = 3.64969e-17
Pressure gradient source: uncorrected Ubar = 1.00003, pressure gradient = 0.00385644
smoothSolver:  Solving for omega, Initial residual = 9.27749e-05, Final residual = 8.88079e-06, No Iterations 3
smoothSolver:  Solving for k, Initial residual = 0.0188999, Final residual = 0.00139624, No Iterations 5
ExecutionTime = 0.03836 s  ClockTime = 0 s

Time = 14s

smoothSolver:  Solving for Ux, Initial residual = 0.00843266, Final residual = 0.000672151, No Iterations 6
smoothSolver:  Solving for Uy, Initial residual = 0.456719, Final residual = 0.0277192, No Iterations 3
Pressure gradient source: uncorrected Ubar = 1.00017, pressure gradient = 0.00149185
GAMG:  Solving for p, Initial residual = 0.0989292, Final residual = 0.00914401, No Iterations 7
time step continuity errors : sum local = 0.000138994, global = -3.39237e-18, cumulative = 3.31046e-17
Pressure gradient source: uncorrected Ubar = 1.00002, pressure gradient = 0.00360323
smoothSolver:  Solving for omega, Initial residual = 7.23267e-05, Final residual = 8.7508e-06, No Iterations 3
smoothSolver:  Solving for k, Initial residual = 0.0165307, Final residual = 0.00116289, No Iterations 5
ExecutionTime = 0.040409 s  ClockTime = 0 s

Time = 15s

smoothSolver:  Solving for Ux, Initial residual = 0.00785039, Final residual = 0.000644298, No Iterations 6
smoothSolver:  Solving for Uy, Initial residual = 0.574163, Final residual = 0.0343104, No Iterations 3
Pressure gradient source: uncorrected Ubar = 1.00012, pressure gradient = 0.00183284
GAMG:  Solving for p, Initial residual = 0.0936265, Final residual = 0.00647468, No Iterations 7
time step continuity errors : sum local = 8.96079e-05, global = 2.34713e-18, cumulative = 3.54517e-17
Pressure gradient source: uncorrected Ubar = 1.00001, pressure gradient = 0.00342052
smoothSolver:  Solving for omega, Initial residual = 5.44612e-05, Final residual = 6.8323e-06, No Iterations 3
smoothSolver:  Solving for k, Initial residual = 0.0139599, Final residual = 0.000909256, No Iterations 5
ExecutionTime = 0.042473 s  ClockTime = 0 s

Time = 16s

smoothSolver:  Solving for Ux, Initial residual = 0.00737513, Final residual = 0.000618488, No Iterations 6
smoothSolver:  Solving for Uy, Initial residual = 0.636453, Final residual = 0.0358773, No Iterations 3
Pressure gradient source: uncorrected Ubar = 1.00009, pressure gradient = 0.00205644
GAMG:  Solving for p, Initial residual = 0.087941, Final residual = 0.00821583, No Iterations 7
time step continuity errors : sum local = 0.000103903, global = -3.81334e-18, cumulative = 3.16384e-17
Pressure gradient source: uncorrected Ubar = 1.00001, pressure gradient = 0.00328334
smoothSolver:  Solving for omega, Initial residual = 4.20472e-05, Final residual = 9.98375e-06, No Iterations 2
smoothSolver:  Solving for k, Initial residual = 0.0124379, Final residual = 0.000912647, No Iterations 5
ExecutionTime = 0.044488 s  ClockTime = 0 s

Time = 17s

smoothSolver:  Solving for Ux, Initial residual = 0.00700048, Final residual = 0.000600054, No Iterations 6
smoothSolver:  Solving for Uy, Initial residual = 0.571597, Final residual = 0.0304447, No Iterations 3
Pressure gradient source: uncorrected Ubar = 1.00006, pressure gradient = 0.00242496
GAMG:  Solving for p, Initial residual = 0.084936, Final residual = 0.00826072, No Iterations 7
time step continuity errors : sum local = 9.44956e-05, global = -3.13892e-18, cumulative = 2.84994e-17
Pressure gradient source: uncorrected Ubar = 1, pressure gradient = 0.00321379
smoothSolver:  Solving for omega, Initial residual = 3.70938e-05, Final residual = 9.31516e-06, No Iterations 2
smoothSolver:  Solving for k, Initial residual = 0.0111486, Final residual = 0.000784386, No Iterations 5
ExecutionTime = 0.046537 s  ClockTime = 0 s

Time = 18s

smoothSolver:  Solving for Ux, Initial residual = 0.00671353, Final residual = 0.00058591, No Iterations 6
smoothSolver:  Solving for Uy, Initial residual = 0.507583, Final residual = 0.0260085, No Iterations 3
Pressure gradient source: uncorrected Ubar = 1.00004, pressure gradient = 0.00254211
GAMG:  Solving for p, Initial residual = 0.0815815, Final residual = 0.00769485, No Iterations 7
time step continuity errors : sum local = 7.99266e-05, global = 4.6176e-18, cumulative = 3.3117e-17
Pressure gradient source: uncorrected Ubar = 1, pressure gradient = 0.00316224
smoothSolver:  Solving for omega, Initial residual = 3.13351e-05, Final residual = 9.31494e-06, No Iterations 2
smoothSolver:  Solving for k, Initial residual = 0.00995844, Final residual = 0.000656411, No Iterations 5
ExecutionTime = 0.048672 s  ClockTime = 0 s

Time = 19s

smoothSolver:  Solving for Ux, Initial residual = 0.00642949, Final residual = 0.000570218, No Iterations 6
smoothSolver:  Solving for Uy, Initial residual = 0.48209, Final residual = 0.0231539, No Iterations 3
Pressure gradient source: uncorrected Ubar = 1.00003, pressure gradient = 0.00271147
GAMG:  Solving for p, Initial residual = 0.077141, Final residual = 0.00723939, No Iterations 7
time step continuity errors : sum local = 6.84914e-05, global = -2.90532e-19, cumulative = 3.28265e-17
Pressure gradient source: uncorrected Ubar = 1, pressure gradient = 0.00313834
smoothSolver:  Solving for omega, Initial residual = 2.9335e-05, Final residual = 8.25462e-06, No Iterations 2
smoothSolver:  Solving for k, Initial residual = 0.00894986, Final residual = 0.000620996, No Iterations 5
ExecutionTime = 0.050955 s  ClockTime = 0 s

Time = 20s

smoothSolver:  Solving for Ux, Initial residual = 0.00625541, Final residual = 0.000558744, No Iterations 6
smoothSolver:  Solving for Uy, Initial residual = 0.513717, Final residual = 0.0244737, No Iterations 3
Pressure gradient source: uncorrected Ubar = 1.00001, pressure gradient = 0.00291111
GAMG:  Solving for p, Initial residual = 0.0750763, Final residual = 0.00689094, No Iterations 7
time step continuity errors : sum local = 5.80209e-05, global = -6.96613e-18, cumulative = 2.58604e-17
Pressure gradient source: uncorrected Ubar = 1, pressure gradient = 0.00313897
smoothSolver:  Solving for omega, Initial residual = 2.59833e-05, Final residual = 8.00623e-06, No Iterations 2
smoothSolver:  Solving for k, Initial residual = 0.00792195, Final residual = 0.000504044, No Iterations 5
ExecutionTime = 0.053134 s  ClockTime = 0 s

Time = 21s

smoothSolver:  Solving for Ux, Initial residual = 0.00616736, Final residual = 0.000545096, No Iterations 6
smoothSolver:  Solving for Uy, Initial residual = 0.547466, Final residual = 0.0279382, No Iterations 3
Pressure gradient source: uncorrected Ubar = 1.00001, pressure gradient = 0.00300217
GAMG:  Solving for p, Initial residual = 0.0700397, Final residual = 0.00670326, No Iterations 6
time step continuity errors : sum local = 4.99827e-05, global = -3.24541e-18, cumulative = 2.2615e-17
Pressure gradient source: uncorrected Ubar = 0.999999, pressure gradient = 0.00314937
smoothSolver:  Solving for omega, Initial residual = 2.48816e-05, Final residual = 7.23772e-06, No Iterations 2
smoothSolver:  Solving for k, Initial residual = 0.00712386, Final residual = 0.000418421, No Iterations 5
ExecutionTime = 0.055216 s  ClockTime = 0 s

Time = 22s

smoothSolver:  Solving for Ux, Initial residual = 0.00607351, Final residual = 0.000530646, No Iterations 6
smoothSolver:  Solving for Uy, Initial residual = 0.55711, Final residual = 0.0311178, No Iterations 3
Pressure gradient source: uncorrected Ubar = 1, pressure gradient = 0.00308713
GAMG:  Solving for p, Initial residual = 0.0644766, Final residual = 0.00528078, No Iterations 6
time step continuity errors : sum local = 3.44332e-05, global = -8.57621e-19, cumulative = 2.17574e-17
Pressure gradient source: uncorrected Ubar = 0.999999, pressure gradient = 0.00316619
smoothSolver:  Solving for omega, Initial residual = 2.32478e-05, Final residual = 6.75207e-06, No Iterations 2
smoothSolver:  Solving for k, Initial residual = 0.00657704, Final residual = 0.000464952, No Iterations 5
ExecutionTime = 0.057221 s  ClockTime = 0 s

Time = 23s

smoothSolver:  Solving for Ux, Initial residual = 0.00599206, Final residual = 0.000517633, No Iterations 6
smoothSolver:  Solving for Uy, Initial residual = 0.530422, Final residual = 0.0309964, No Iterations 3
Pressure gradient source: uncorrected Ubar = 0.999994, pressure gradient = 0.00326236
GAMG:  Solving for p, Initial residual = 0.0615632, Final residual = 0.00472359, No Iterations 4
time step continuity errors : sum local = 2.67738e-05, global = -4.88145e-18, cumulative = 1.68759e-17
Pressure gradient source: uncorrected Ubar = 0.999998, pressure gradient = 0.00320206
smoothSolver:  Solving for omega, Initial residual = 2.29875e-05, Final residual = 6.54514e-06, No Iterations 2
smoothSolver:  Solving for k, Initial residual = 0.00609113, Final residual = 0.000404649, No Iterations 5
ExecutionTime = 0.059156 s  ClockTime = 0 s

Time = 24s

smoothSolver:  Solving for Ux, Initial residual = 0.00589644, Final residual = 0.000503649, No Iterations 6
smoothSolver:  Solving for Uy, Initial residual = 0.467466, Final residual = 0.0269248, No Iterations 3
Pressure gradient source: uncorrected Ubar = 0.999991, pressure gradient = 0.00336459
GAMG:  Solving for p, Initial residual = 0.0624171, Final residual = 0.00334103, No Iterations 4
time step continuity errors : sum local = 1.61687e-05, global = 8.57261e-18, cumulative = 2.54485e-17
Pressure gradient source: uncorrected Ubar = 0.999998, pressure gradient = 0.0032448
smoothSolver:  Solving for omega, Initial residual = 2.23541e-05, Final residual = 6.71915e-06, No Iterations 2
smoothSolver:  Solving for k, Initial residual = 0.00581566, Final residual = 0.00042451, No Iterations 5
ExecutionTime = 0.061111 s  ClockTime = 0 s

Time = 25s

smoothSolver:  Solving for Ux, Initial residual = 0.00579048, Final residual = 0.000489446, No Iterations 6
smoothSolver:  Solving for Uy, Initial residual = 0.394128, Final residual = 0.0219069, No Iterations 3
Pressure gradient source: uncorrected Ubar = 0.999989, pressure gradient = 0.00342818
GAMG:  Solving for p, Initial residual = 0.0628585, Final residual = 0.00234687, No Iterations 4
time step continuity errors : sum local = 9.34514e-06, global = 2.93476e-18, cumulative = 2.83833e-17
Pressure gradient source: uncorrected Ubar = 0.999998, pressure gradient = 0.00328793
smoothSolver:  Solving for omega, Initial residual = 2.22288e-05, Final residual = 6.10075e-06, No Iterations 2
smoothSolver:  Solving for k, Initial residual = 0.00543564, Final residual = 0.00035967, No Iterations 5
ExecutionTime = 0.06305 s  ClockTime = 0 s

Time = 26s

smoothSolver:  Solving for Ux, Initial residual = 0.00567984, Final residual = 0.000475493, No Iterations 6
smoothSolver:  Solving for Uy, Initial residual = 0.320464, Final residual = 0.0174516, No Iterations 3
Pressure gradient source: uncorrected Ubar = 0.999988, pressure gradient = 0.00350165
GAMG:  Solving for p, Initial residual = 0.0626437, Final residual = 0.00519507, No Iterations 3
time step continuity errors : sum local = 1.73399e-05, global = -1.77284e-18, cumulative = 2.66104e-17
Pressure gradient source: uncorrected Ubar = 0.999997, pressure gradient = 0.00333248
smoothSolver:  Solving for omega, Initial residual = 2.19337e-05, Final residual = 5.84225e-06, No Iterations 2
smoothSolver:  Solving for k, Initial residual = 0.00520164, Final residual = 0.000335985, No Iterations 5
ExecutionTime = 0.065023 s  ClockTime = 0 s

Time = 27s

smoothSolver:  Solving for Ux, Initial residual = 0.00556423, Final residual = 0.000461451, No Iterations 6
smoothSolver:  Solving for Uy, Initial residual = 0.280512, Final residual = 0.0147053, No Iterations 3
Pressure gradient source: uncorrected Ubar = 0.999988, pressure gradient = 0.00355656
GAMG:  Solving for p, Initial residual = 0.0699736, Final residual = 0.00571553, No Iterations 3
time step continuity errors : sum local = 1.57419e-05, global = 2.8974e-18, cumulative = 2.95078e-17
Pressure gradient source: uncorrected Ubar = 0.999998, pressure gradient = 0.00337635
smoothSolver:  Solving for omega, Initial residual = 2.19313e-05, Final residual = 6.19774e-06, No Iterations 2
smoothSolver:  Solving for k, Initial residual = 0.00484478, Final residual = 0.000302464, No Iterations 5
ExecutionTime = 0.067201 s  ClockTime = 0 s

Time = 28s

smoothSolver:  Solving for Ux, Initial residual = 0.00545475, Final residual = 0.000448312, No Iterations 6
smoothSolver:  Solving for Uy, Initial residual = 0.259233, Final residual = 0.0135179, No Iterations 3
Pressure gradient source: uncorrected Ubar = 0.999982, pressure gradient = 0.00369823
GAMG:  Solving for p, Initial residual = 0.0740366, Final residual = 0.00724005, No Iterations 3
time step continuity errors : sum local = 1.55088e-05, global = 8.1155e-19, cumulative = 3.03194e-17
Pressure gradient source: uncorrected Ubar = 0.999997, pressure gradient = 0.00343132
smoothSolver:  Solving for omega, Initial residual = 2.18647e-05, Final residual = 6.36163e-06, No Iterations 2
smoothSolver:  Solving for k, Initial residual = 0.00451943, Final residual = 0.000295364, No Iterations 5
ExecutionTime = 0.069277 s  ClockTime = 0 s

Time = 29s

smoothSolver:  Solving for Ux, Initial residual = 0.00534788, Final residual = 0.000435984, No Iterations 6
smoothSolver:  Solving for Uy, Initial residual = 0.251303, Final residual = 0.0139257, No Iterations 3
Pressure gradient source: uncorrected Ubar = 0.999978, pressure gradient = 0.00384133
GAMG:  Solving for p, Initial residual = 0.0803678, Final residual = 0.00571122, No Iterations 4
time step continuity errors : sum local = 9.50455e-06, global = 3.91251e-18, cumulative = 3.42319e-17
Pressure gradient source: uncorrected Ubar = 0.999997, pressure gradient = 0.00349593
smoothSolver:  Solving for omega, Initial residual = 2.1566e-05, Final residual = 6.31918e-06, No Iterations 2
smoothSolver:  Solving for k, Initial residual = 0.00431735, Final residual = 0.000306513, No Iterations 5
ExecutionTime = 0.071343 s  ClockTime = 0 s

Time = 30s

smoothSolver:  Solving for Ux, Initial residual = 0.00523652, Final residual = 0.00042321, No Iterations 6
smoothSolver:  Solving for Uy, Initial residual = 0.255028, Final residual = 0.0169059, No Iterations 3
Pressure gradient source: uncorrected Ubar = 0.999982, pressure gradient = 0.00382816
GAMG:  Solving for p, Initial residual = 0.0818937, Final residual = 0.00653532, No Iterations 6
time step continuity errors : sum local = 8.50966e-06, global = -2.06621e-18, cumulative = 3.21657e-17
Pressure gradient source: uncorrected Ubar = 0.999997, pressure gradient = 0.00354741
smoothSolver:  Solving for omega, Initial residual = 2.12283e-05, Final residual = 6.1597e-06, No Iterations 2
smoothSolver:  Solving for k, Initial residual = 0.00407208, Final residual = 0.00030542, No Iterations 5
ExecutionTime = 0.073362 s  ClockTime = 0 s

Time = 31s

smoothSolver:  Solving for Ux, Initial residual = 0.00512287, Final residual = 0.000410422, No Iterations 6
smoothSolver:  Solving for Uy, Initial residual = 0.256529, Final residual = 0.0193567, No Iterations 3
Pressure gradient source: uncorrected Ubar = 0.999984, pressure gradient = 0.00385898
GAMG:  Solving for p, Initial residual = 0.0644777, Final residual = 0.00607309, No Iterations 6
time step continuity errors : sum local = 7.71461e-06, global = 5.07357e-18, cumulative = 3.72392e-17
Pressure gradient source: uncorrected Ubar = 0.999998, pressure gradient = 0.00359368
smoothSolver:  Solving for omega, Initial residual = 2.10184e-05, Final residual = 6.03452e-06, No Iterations 2
smoothSolver:  Solving for k, Initial residual = 0.00375537, Final residual = 0.000220551, No Iterations 5
ExecutionTime = 0.075357 s  ClockTime = 0 s

Time = 32s

smoothSolver:  Solving for Ux, Initial residual = 0.00501845, Final residual = 0.000399067, No Iterations 6
smoothSolver:  Solving for Uy, Initial residual = 0.250292, Final residual = 0.0195912, No Iterations 3
Pressure gradient source: uncorrected Ubar = 0.999978, pressure gradient = 0.00402346
GAMG:  Solving for p, Initial residual = 0.0560127, Final residual = 0.00524682, No Iterations 6
time step continuity errors : sum local = 7.53592e-06, global = -1.75035e-18, cumulative = 3.54889e-17
Pressure gradient source: uncorrected Ubar = 0.999997, pressure gradient = 0.00365371
smoothSolver:  Solving for omega, Initial residual = 2.06511e-05, Final residual = 5.99006e-06, No Iterations 2
smoothSolver:  Solving for k, Initial residual = 0.0035676, Final residual = 0.000233578, No Iterations 5
ExecutionTime = 0.077366 s  ClockTime = 0 s

Time = 33s

smoothSolver:  Solving for Ux, Initial residual = 0.00491443, Final residual = 0.000387925, No Iterations 6
smoothSolver:  Solving for Uy, Initial residual = 0.249544, Final residual = 0.0198611, No Iterations 3
Pressure gradient source: uncorrected Ubar = 0.999979, pressure gradient = 0.0040763
GAMG:  Solving for p, Initial residual = 0.0483377, Final residual = 0.00470356, No Iterations 6
time step continuity errors : sum local = 6.35153e-06, global = 1.01772e-18, cumulative = 3.65066e-17
Pressure gradient source: uncorrected Ubar = 0.999997, pressure gradient = 0.0037104
smoothSolver:  Solving for omega, Initial residual = 2.02651e-05, Final residual = 6.00626e-06, No Iterations 2
smoothSolver:  Solving for k, Initial residual = 0.00340326, Final residual = 0.000289314, No Iterations 5
ExecutionTime = 0.079382 s  ClockTime = 0 s

Time = 34s

smoothSolver:  Solving for Ux, Initial residual = 0.00480678, Final residual = 0.00037627, No Iterations 6
smoothSolver:  Solving for Uy, Initial residual = 0.216208, Final residual = 0.0165778, No Iterations 3
Pressure gradient source: uncorrected Ubar = 0.999985, pressure gradient = 0.00401838
GAMG:  Solving for p, Initial residual = 0.0452959, Final residual = 0.00420626, No Iterations 7
time step continuity errors : sum local = 5.10643e-06, global = 1.60322e-18, cumulative = 3.81098e-17
Pressure gradient source: uncorrected Ubar = 0.999998, pressure gradient = 0.00374889
smoothSolver:  Solving for omega, Initial residual = 1.97789e-05, Final residual = 5.8835e-06, No Iterations 2
smoothSolver:  Solving for k, Initial residual = 0.00314578, Final residual = 0.000204262, No Iterations 5
ExecutionTime = 0.081513 s  ClockTime = 0 s

Time = 35s

smoothSolver:  Solving for Ux, Initial residual = 0.00470897, Final residual = 0.000365901, No Iterations 6
smoothSolver:  Solving for Uy, Initial residual = 0.148337, Final residual = 0.0101678, No Iterations 3
Pressure gradient source: uncorrected Ubar = 0.999981, pressure gradient = 0.00413147
GAMG:  Solving for p, Initial residual = 0.0372044, Final residual = 0.00367296, No Iterations 7
time step continuity errors : sum local = 4.27445e-06, global = -7.0318e-18, cumulative = 3.1078e-17
Pressure gradient source: uncorrected Ubar = 0.999998, pressure gradient = 0.00379538
smoothSolver:  Solving for omega, Initial residual = 1.93251e-05, Final residual = 9.30284e-06, No Iterations 1
smoothSolver:  Solving for k, Initial residual = 0.00290566, Final residual = 0.000187441, No Iterations 5
ExecutionTime = 0.083715 s  ClockTime = 0 s

Time = 36s

smoothSolver:  Solving for Ux, Initial residual = 0.00462219, Final residual = 0.000356916, No Iterations 6
smoothSolver:  Solving for Uy, Initial residual = 0.140693, Final residual = 0.00941512, No Iterations 3
Pressure gradient source: uncorrected Ubar = 0.999977, pressure gradient = 0.0042768
GAMG:  Solving for p, Initial residual = 0.0390524, Final residual = 0.00369195, No Iterations 7
time step continuity errors : sum local = 3.97581e-06, global = 1.62271e-18, cumulative = 3.27008e-17
Pressure gradient source: uncorrected Ubar = 0.999997, pressure gradient = 0.00385321
smoothSolver:  Solving for omega, Initial residual = 2.06228e-05, Final residual = 9.99692e-06, No Iterations 1
smoothSolver:  Solving for k, Initial residual = 0.00274745, Final residual = 0.000198804, No Iterations 5
ExecutionTime = 0.085956 s  ClockTime = 0 s

Time = 37s

smoothSolver:  Solving for Ux, Initial residual = 0.00453074, Final residual = 0.000347573, No Iterations 6
smoothSolver:  Solving for Uy, Initial residual = 0.118603, Final residual = 0.00763263, No Iterations 3
Pressure gradient source: uncorrected Ubar = 0.999981, pressure gradient = 0.00424867
GAMG:  Solving for p, Initial residual = 0.0353704, Final residual = 0.00294521, No Iterations 7
time step continuity errors : sum local = 3.03706e-06, global = -9.66928e-18, cumulative = 2.30315e-17
Pressure gradient source: uncorrected Ubar = 0.999998, pressure gradient = 0.00389715
smoothSolver:  Solving for omega, Initial residual = 2.09302e-05, Final residual = 6.38522e-06, No Iterations 2
smoothSolver:  Solving for k, Initial residual = 0.00257349, Final residual = 0.000189577, No Iterations 5
ExecutionTime = 0.088081 s  ClockTime = 0 s

Time = 38s

smoothSolver:  Solving for Ux, Initial residual = 0.00443575, Final residual = 0.000337885, No Iterations 6
smoothSolver:  Solving for Uy, Initial residual = 0.111658, Final residual = 0.00707595, No Iterations 3
Pressure gradient source: uncorrected Ubar = 0.999984, pressure gradient = 0.00424176
GAMG:  Solving for p, Initial residual = 0.0304386, Final residual = 0.00222464, No Iterations 4
time step continuity errors : sum local = 2.17113e-06, global = 1.80984e-18, cumulative = 2.48413e-17
Pressure gradient source: uncorrected Ubar = 0.999998, pressure gradient = 0.00393199
smoothSolver:  Solving for omega, Initial residual = 1.92801e-05, Final residual = 9.951e-06, No Iterations 1
smoothSolver:  Solving for k, Initial residual = 0.00249708, Final residual = 0.000185926, No Iterations 5
ExecutionTime = 0.09004 s  ClockTime = 0 s

Time = 39s

smoothSolver:  Solving for Ux, Initial residual = 0.0043525, Final residual = 0.000329522, No Iterations 6
smoothSolver:  Solving for Uy, Initial residual = 0.0792185, Final residual = 0.00426984, No Iterations 3
Pressure gradient source: uncorrected Ubar = 0.999981, pressure gradient = 0.00434637
GAMG:  Solving for p, Initial residual = 0.027094, Final residual = 0.00214314, No Iterations 3
time step continuity errors : sum local = 1.8664e-06, global = -5.62139e-18, cumulative = 1.92199e-17
Pressure gradient source: uncorrected Ubar = 0.999998, pressure gradient = 0.00397461
smoothSolver:  Solving for omega, Initial residual = 2.02964e-05, Final residual = 5.65024e-06, No Iterations 2
smoothSolver:  Solving for k, Initial residual = 0.00235329, Final residual = 0.000146146, No Iterations 5
ExecutionTime = 0.091948 s  ClockTime = 0 s

Time = 40s

smoothSolver:  Solving for Ux, Initial residual = 0.00427144, Final residual = 0.000321737, No Iterations 6
smoothSolver:  Solving for Uy, Initial residual = 0.0900963, Final residual = 0.00588238, No Iterations 3
Pressure gradient source: uncorrected Ubar = 0.999979, pressure gradient = 0.00443648
GAMG:  Solving for p, Initial residual = 0.0295701, Final residual = 0.00288492, No Iterations 2
time step continuity errors : sum local = 2.22314e-06, global = -3.64383e-18, cumulative = 1.55761e-17
Pressure gradient source: uncorrected Ubar = 0.999998, pressure gradient = 0.00402177
smoothSolver:  Solving for omega, Initial residual = 1.86906e-05, Final residual = 6.0385e-06, No Iterations 2
smoothSolver:  Solving for k, Initial residual = 0.00229941, Final residual = 0.000170534, No Iterations 5
ExecutionTime = 0.093829 s  ClockTime = 0 s

Time = 41s

smoothSolver:  Solving for Ux, Initial residual = 0.00419302, Final residual = 0.000314214, No Iterations 6
smoothSolver:  Solving for Uy, Initial residual = 0.0787342, Final residual = 0.00469561, No Iterations 3
Pressure gradient source: uncorrected Ubar = 0.99998, pressure gradient = 0.00445579
GAMG:  Solving for p, Initial residual = 0.0276967, Final residual = 0.00114617, No Iterations 3
time step continuity errors : sum local = 8.31093e-07, global = 1.00316e-17, cumulative = 2.56077e-17
Pressure gradient source: uncorrected Ubar = 0.999998, pressure gradient = 0.00406309
smoothSolver:  Solving for omega, Initial residual = 1.81465e-05, Final residual = 9.70734e-06, No Iterations 1
smoothSolver:  Solving for k, Initial residual = 0.00229698, Final residual = 0.000167595, No Iterations 5
ExecutionTime = 0.095724 s  ClockTime = 0 s

Time = 42s

smoothSolver:  Solving for Ux, Initial residual = 0.00411758, Final residual = 0.000307178, No Iterations 6
smoothSolver:  Solving for Uy, Initial residual = 0.0637217, Final residual = 0.00344285, No Iterations 3
Pressure gradient source: uncorrected Ubar = 0.999983, pressure gradient = 0.00443591
GAMG:  Solving for p, Initial residual = 0.0238491, Final residual = 0.00230101, No Iterations 3
time step continuity errors : sum local = 1.61592e-06, global = 4.22096e-18, cumulative = 2.98287e-17
Pressure gradient source: uncorrected Ubar = 0.999999, pressure gradient = 0.00409468
smoothSolver:  Solving for omega, Initial residual = 1.88036e-05, Final residual = 9.75908e-06, No Iterations 1
smoothSolver:  Solving for k, Initial residual = 0.0022629, Final residual = 0.000150554, No Iterations 5
ExecutionTime = 0.097731 s  ClockTime = 0 s

Time = 43s

smoothSolver:  Solving for Ux, Initial residual = 0.00405219, Final residual = 0.000300966, No Iterations 6
smoothSolver:  Solving for Uy, Initial residual = 0.0599375, Final residual = 0.0038128, No Iterations 3
Pressure gradient source: uncorrected Ubar = 0.999981, pressure gradient = 0.00452069
GAMG:  Solving for p, Initial residual = 0.0250984, Final residual = 0.00246195, No Iterations 6
time step continuity errors : sum local = 1.59208e-06, global = 3.93188e-18, cumulative = 3.37606e-17
Pressure gradient source: uncorrected Ubar = 0.999998, pressure gradient = 0.00413212
smoothSolver:  Solving for omega, Initial residual = 1.88184e-05, Final residual = 9.58669e-06, No Iterations 1
smoothSolver:  Solving for k, Initial residual = 0.00226885, Final residual = 0.000168411, No Iterations 5
ExecutionTime = 0.099828 s  ClockTime = 0 s

Time = 44s

smoothSolver:  Solving for Ux, Initial residual = 0.00398904, Final residual = 0.000295001, No Iterations 6
smoothSolver:  Solving for Uy, Initial residual = 0.0679699, Final residual = 0.00506059, No Iterations 3
Pressure gradient source: uncorrected Ubar = 0.999981, pressure gradient = 0.00454829
GAMG:  Solving for p, Initial residual = 0.0284228, Final residual = 0.00245379, No Iterations 8
time step continuity errors : sum local = 1.48634e-06, global = -3.54167e-19, cumulative = 3.34064e-17
Pressure gradient source: uncorrected Ubar = 0.999998, pressure gradient = 0.00416685
smoothSolver:  Solving for omega, Initial residual = 1.87857e-05, Final residual = 9.67721e-06, No Iterations 1
smoothSolver:  Solving for k, Initial residual = 0.00237069, Final residual = 0.000218005, No Iterations 5
ExecutionTime = 0.102049 s  ClockTime = 0 s

Time = 45s

smoothSolver:  Solving for Ux, Initial residual = 0.00392444, Final residual = 0.000288913, No Iterations 6
smoothSolver:  Solving for Uy, Initial residual = 0.0725293, Final residual = 0.00576899, No Iterations 3
Pressure gradient source: uncorrected Ubar = 0.999983, pressure gradient = 0.00454804
GAMG:  Solving for p, Initial residual = 0.0238566, Final residual = 0.00215937, No Iterations 11
time step continuity errors : sum local = 1.17941e-06, global = 4.88157e-19, cumulative = 3.38945e-17
Pressure gradient source: uncorrected Ubar = 0.999999, pressure gradient = 0.00419559
smoothSolver:  Solving for omega, Initial residual = 1.87587e-05, Final residual = 9.70385e-06, No Iterations 1
smoothSolver:  Solving for k, Initial residual = 0.00240129, Final residual = 0.000216985, No Iterations 5
ExecutionTime = 0.104315 s  ClockTime = 0 s

Time = 46s

smoothSolver:  Solving for Ux, Initial residual = 0.00386027, Final residual = 0.000282957, No Iterations 6
smoothSolver:  Solving for Uy, Initial residual = 0.0691672, Final residual = 0.00539053, No Iterations 3
Pressure gradient source: uncorrected Ubar = 0.999984, pressure gradient = 0.00456571
GAMG:  Solving for p, Initial residual = 0.0262153, Final residual = 0.00242392, No Iterations 8
time step continuity errors : sum local = 1.20549e-06, global = 2.3534e-18, cumulative = 3.62479e-17
Pressure gradient source: uncorrected Ubar = 0.999999, pressure gradient = 0.00422167
smoothSolver:  Solving for omega, Initial residual = 1.86107e-05, Final residual = 9.70245e-06, No Iterations 1
smoothSolver:  Solving for k, Initial residual = 0.00240457, Final residual = 0.000200221, No Iterations 5
ExecutionTime = 0.106454 s  ClockTime = 0 s

Time = 47s

smoothSolver:  Solving for Ux, Initial residual = 0.00379783, Final residual = 0.000277397, No Iterations 6
smoothSolver:  Solving for Uy, Initial residual = 0.0728668, Final residual = 0.00496883, No Iterations 3
Pressure gradient source: uncorrected Ubar = 0.999984, pressure gradient = 0.00458897
GAMG:  Solving for p, Initial residual = 0.0314853, Final residual = 0.00257749, No Iterations 8
time step continuity errors : sum local = 1.11832e-06, global = -3.31518e-18, cumulative = 3.29328e-17
Pressure gradient source: uncorrected Ubar = 0.999999, pressure gradient = 0.00424637
smoothSolver:  Solving for omega, Initial residual = 1.84322e-05, Final residual = 9.86124e-06, No Iterations 1
smoothSolver:  Solving for k, Initial residual = 0.00240683, Final residual = 0.000183922, No Iterations 5
ExecutionTime = 0.108497 s  ClockTime = 0 s

Time = 48s

smoothSolver:  Solving for Ux, Initial residual = 0.00374233, Final residual = 0.00027256, No Iterations 6
smoothSolver:  Solving for Uy, Initial residual = 0.0961711, Final residual = 0.00766038, No Iterations 3
Pressure gradient source: uncorrected Ubar = 0.999984, pressure gradient = 0.00462391
GAMG:  Solving for p, Initial residual = 0.031642, Final residual = 0.00280574, No Iterations 8
time step continuity errors : sum local = 1.31858e-06, global = -6.43441e-18, cumulative = 2.64984e-17
Pressure gradient source: uncorrected Ubar = 0.999999, pressure gradient = 0.00427159
smoothSolver:  Solving for omega, Initial residual = 1.8288e-05, Final residual = 9.55298e-06, No Iterations 1
smoothSolver:  Solving for k, Initial residual = 0.00245829, Final residual = 0.00020412, No Iterations 5
ExecutionTime = 0.110578 s  ClockTime = 0 s

Time = 49s

smoothSolver:  Solving for Ux, Initial residual = 0.00369019, Final residual = 0.000267865, No Iterations 6
smoothSolver:  Solving for Uy, Initial residual = 0.0720548, Final residual = 0.00633318, No Iterations 3
Pressure gradient source: uncorrected Ubar = 0.999984, pressure gradient = 0.00465016
GAMG:  Solving for p, Initial residual = 0.0258857, Final residual = 0.00169192, No Iterations 11
time step continuity errors : sum local = 7.38388e-07, global = -2.12408e-18, cumulative = 2.43743e-17
Pressure gradient source: uncorrected Ubar = 0.999999, pressure gradient = 0.00429618
smoothSolver:  Solving for omega, Initial residual = 1.79463e-05, Final residual = 9.62401e-06, No Iterations 1
smoothSolver:  Solving for k, Initial residual = 0.0025164, Final residual = 0.000231224, No Iterations 5
ExecutionTime = 0.112705 s  ClockTime = 0 s

Time = 50s

smoothSolver:  Solving for Ux, Initial residual = 0.00363692, Final residual = 0.000263148, No Iterations 6
smoothSolver:  Solving for Uy, Initial residual = 0.0663599, Final residual = 0.00450711, No Iterations 3
Pressure gradient source: uncorrected Ubar = 0.999984, pressure gradient = 0.00466765
GAMG:  Solving for p, Initial residual = 0.0276328, Final residual = 0.00266112, No Iterations 8
time step continuity errors : sum local = 1.03249e-06, global = -4.12318e-18, cumulative = 2.02511e-17
Pressure gradient source: uncorrected Ubar = 0.999999, pressure gradient = 0.00431907
smoothSolver:  Solving for omega, Initial residual = 1.78068e-05, Final residual = 9.60244e-06, No Iterations 1
smoothSolver:  Solving for k, Initial residual = 0.00254898, Final residual = 0.000239229, No Iterations 5
ExecutionTime = 0.114859 s  ClockTime = 0 s

Time = 51s

smoothSolver:  Solving for Ux, Initial residual = 0.00358377, Final residual = 0.000258412, No Iterations 6
smoothSolver:  Solving for Uy, Initial residual = 0.0579252, Final residual = 0.0038542, No Iterations 3
Pressure gradient source: uncorrected Ubar = 0.999985, pressure gradient = 0.00466173
GAMG:  Solving for p, Initial residual = 0.0294645, Final residual = 0.00222764, No Iterations 8
time step continuity errors : sum local = 8.63897e-07, global = -8.00972e-18, cumulative = 1.22414e-17
Pressure gradient source: uncorrected Ubar = 0.999999, pressure gradient = 0.00433733
smoothSolver:  Solving for omega, Initial residual = 1.75006e-05, Final residual = 9.13572e-06, No Iterations 1
smoothSolver:  Solving for k, Initial residual = 0.00259924, Final residual = 0.000232471, No Iterations 5
ExecutionTime = 0.117123 s  ClockTime = 0 s

Time = 52s

smoothSolver:  Solving for Ux, Initial residual = 0.00353016, Final residual = 0.000253513, No Iterations 6
smoothSolver:  Solving for Uy, Initial residual = 0.0486667, Final residual = 0.00334639, No Iterations 3
Pressure gradient source: uncorrected Ubar = 0.999988, pressure gradient = 0.00461199
GAMG:  Solving for p, Initial residual = 0.028006, Final residual = 0.00262771, No Iterations 5
time step continuity errors : sum local = 9.08645e-07, global = 1.71677e-17, cumulative = 2.94091e-17
Pressure gradient source: uncorrected Ubar = 1, pressure gradient = 0.0043457
smoothSolver:  Solving for omega, Initial residual = 1.72586e-05, Final residual = 9.37204e-06, No Iterations 1
smoothSolver:  Solving for k, Initial residual = 0.00262378, Final residual = 0.000254527, No Iterations 5
ExecutionTime = 0.11927 s  ClockTime = 0 s

Time = 53s

smoothSolver:  Solving for Ux, Initial residual = 0.00348274, Final residual = 0.000249174, No Iterations 6
smoothSolver:  Solving for Uy, Initial residual = 0.051795, Final residual = 0.00358795, No Iterations 3
Pressure gradient source: uncorrected Ubar = 0.999987, pressure gradient = 0.00465834
GAMG:  Solving for p, Initial residual = 0.0320643, Final residual = 0.00201378, No Iterations 7
time step continuity errors : sum local = 7.69627e-07, global = -1.01498e-17, cumulative = 1.92592e-17
Pressure gradient source: uncorrected Ubar = 0.999999, pressure gradient = 0.00435878
smoothSolver:  Solving for omega, Initial residual = 1.70249e-05, Final residual = 9.44088e-06, No Iterations 1
smoothSolver:  Solving for k, Initial residual = 0.00261496, Final residual = 0.000221358, No Iterations 5
ExecutionTime = 0.121412 s  ClockTime = 0 s

Time = 54s

smoothSolver:  Solving for Ux, Initial residual = 0.00343826, Final residual = 0.000245217, No Iterations 6
smoothSolver:  Solving for Uy, Initial residual = 0.0637732, Final residual = 0.00509089, No Iterations 3
Pressure gradient source: uncorrected Ubar = 0.999986, pressure gradient = 0.00470118
GAMG:  Solving for p, Initial residual = 0.0341071, Final residual = 0.00283965, No Iterations 7
time step continuity errors : sum local = 9.55906e-07, global = 1.08907e-18, cumulative = 2.03483e-17
Pressure gradient source: uncorrected Ubar = 0.999999, pressure gradient = 0.00437548
smoothSolver:  Solving for omega, Initial residual = 1.66901e-05, Final residual = 9.0139e-06, No Iterations 1
smoothSolver:  Solving for k, Initial residual = 0.00264979, Final residual = 0.000229112, No Iterations 5
ExecutionTime = 0.123452 s  ClockTime = 0 s

Time = 55s

smoothSolver:  Solving for Ux, Initial residual = 0.00339197, Final residual = 0.000240938, No Iterations 6
smoothSolver:  Solving for Uy, Initial residual = 0.0639344, Final residual = 0.00328585, No Iterations 4
Pressure gradient source: uncorrected Ubar = 0.999988, pressure gradient = 0.00466874
GAMG:  Solving for p, Initial residual = 0.0284227, Final residual = 0.00229987, No Iterations 7
time step continuity errors : sum local = 7.85657e-07, global = -1.16931e-18, cumulative = 1.9179e-17
Pressure gradient source: uncorrected Ubar = 1, pressure gradient = 0.00438505
smoothSolver:  Solving for omega, Initial residual = 1.63756e-05, Final residual = 8.66467e-06, No Iterations 1
smoothSolver:  Solving for k, Initial residual = 0.0027528, Final residual = 0.000181562, No Iterations 6
ExecutionTime = 0.12548 s  ClockTime = 0 s

Time = 56s

smoothSolver:  Solving for Ux, Initial residual = 0.0033396, Final residual = 0.000236177, No Iterations 6
smoothSolver:  Solving for Uy, Initial residual = 0.0716664, Final residual = 0.00710169, No Iterations 3
Pressure gradient source: uncorrected Ubar = 0.999989, pressure gradient = 0.00465385
GAMG:  Solving for p, Initial residual = 0.0321206, Final residual = 0.00238106, No Iterations 7
time step continuity errors : sum local = 7.7816e-07, global = 3.20384e-18, cumulative = 2.23828e-17
Pressure gradient source: uncorrected Ubar = 1, pressure gradient = 0.00439095
smoothSolver:  Solving for omega, Initial residual = 1.60795e-05, Final residual = 8.79505e-06, No Iterations 1
smoothSolver:  Solving for k, Initial residual = 0.00276836, Final residual = 0.000194062, No Iterations 6
ExecutionTime = 0.127499 s  ClockTime = 0 s

Time = 57s

smoothSolver:  Solving for Ux, Initial residual = 0.00328956, Final residual = 0.000231654, No Iterations 6
smoothSolver:  Solving for Uy, Initial residual = 0.0603588, Final residual = 0.00331684, No Iterations 4
Pressure gradient source: uncorrected Ubar = 0.999988, pressure gradient = 0.00467339
GAMG:  Solving for p, Initial residual = 0.0307843, Final residual = 0.00204898, No Iterations 7
time step continuity errors : sum local = 6.70824e-07, global = -6.13997e-18, cumulative = 1.62429e-17
Pressure gradient source: uncorrected Ubar = 1, pressure gradient = 0.0043985
smoothSolver:  Solving for omega, Initial residual = 1.59039e-05, Final residual = 8.7419e-06, No Iterations 1
smoothSolver:  Solving for k, Initial residual = 0.00274653, Final residual = 0.000250293, No Iterations 5
ExecutionTime = 0.129542 s  ClockTime = 0 s

Time = 58s

smoothSolver:  Solving for Ux, Initial residual = 0.00324698, Final residual = 0.000227583, No Iterations 6
smoothSolver:  Solving for Uy, Initial residual = 0.0733962, Final residual = 0.00385144, No Iterations 4
Pressure gradient source: uncorrected Ubar = 0.999988, pressure gradient = 0.00468894
GAMG:  Solving for p, Initial residual = 0.0306744, Final residual = 0.00235963, No Iterations 7
time step continuity errors : sum local = 7.05506e-07, global = 3.04192e-18, cumulative = 1.92848e-17
Pressure gradient source: uncorrected Ubar = 1, pressure gradient = 0.00440695
smoothSolver:  Solving for omega, Initial residual = 1.55217e-05, Final residual = 8.40843e-06, No Iterations 1
smoothSolver:  Solving for k, Initial residual = 0.00273236, Final residual = 0.000199917, No Iterations 5
ExecutionTime = 0.131663 s  ClockTime = 0 s

Time = 59s

smoothSolver:  Solving for Ux, Initial residual = 0.00320567, Final residual = 0.000223731, No Iterations 6
smoothSolver:  Solving for Uy, Initial residual = 0.0724584, Final residual = 0.00615115, No Iterations 3
Pressure gradient source: uncorrected Ubar = 0.999988, pressure gradient = 0.00470887
GAMG:  Solving for p, Initial residual = 0.0263986, Final residual = 0.00210518, No Iterations 9
time step continuity errors : sum local = 6.75155e-07, global = 5.41626e-18, cumulative = 2.47011e-17
Pressure gradient source: uncorrected Ubar = 1, pressure gradient = 0.00441684
smoothSolver:  Solving for omega, Initial residual = 1.52217e-05, Final residual = 8.21495e-06, No Iterations 1
smoothSolver:  Solving for k, Initial residual = 0.00283001, Final residual = 0.000265525, No Iterations 5
ExecutionTime = 0.13398 s  ClockTime = 0 s

Time = 60s

smoothSolver:  Solving for Ux, Initial residual = 0.00316208, Final residual = 0.000219644, No Iterations 6
smoothSolver:  Solving for Uy, Initial residual = 0.0745751, Final residual = 0.00392273, No Iterations 4
Pressure gradient source: uncorrected Ubar = 0.999988, pressure gradient = 0.00469814
GAMG:  Solving for p, Initial residual = 0.0386903, Final residual = 0.00381999, No Iterations 5
time step continuity errors : sum local = 1.16975e-06, global = 1.36854e-17, cumulative = 3.83865e-17
Pressure gradient source: uncorrected Ubar = 1, pressure gradient = 0.00442388
smoothSolver:  Solving for omega, Initial residual = 1.5017e-05, Final residual = 8.34713e-06, No Iterations 1
smoothSolver:  Solving for k, Initial residual = 0.00286765, Final residual = 0.000251713, No Iterations 5
ExecutionTime = 0.136101 s  ClockTime = 0 s

Time = 61s

smoothSolver:  Solving for Ux, Initial residual = 0.00310913, Final residual = 0.000215277, No Iterations 6
smoothSolver:  Solving for Uy, Initial residual = 0.0763653, Final residual = 0.00723437, No Iterations 3
Pressure gradient source: uncorrected Ubar = 0.999989, pressure gradient = 0.00468524
GAMG:  Solving for p, Initial residual = 0.0321571, Final residual = 0.00284235, No Iterations 5
time step continuity errors : sum local = 9.0731e-07, global = -9.56721e-18, cumulative = 2.88193e-17
Pressure gradient source: uncorrected Ubar = 1, pressure gradient = 0.00442817
smoothSolver:  Solving for omega, Initial residual = 1.46855e-05, Final residual = 8.00905e-06, No Iterations 1
smoothSolver:  Solving for k, Initial residual = 0.00299604, Final residual = 0.000203616, No Iterations 6
ExecutionTime = 0.138184 s  ClockTime = 0 s

Time = 62s

smoothSolver:  Solving for Ux, Initial residual = 0.00303442, Final residual = 0.000209969, No Iterations 6
smoothSolver:  Solving for Uy, Initial residual = 0.0933881, Final residual = 0.00555528, No Iterations 4
Pressure gradient source: uncorrected Ubar = 0.99999, pressure gradient = 0.00466586
GAMG:  Solving for p, Initial residual = 0.0268357, Final residual = 0.00124234, No Iterations 4
time step continuity errors : sum local = 3.55791e-07, global = -1.4347e-17, cumulative = 1.44722e-17
Pressure gradient source: uncorrected Ubar = 1, pressure gradient = 0.00442925
smoothSolver:  Solving for omega, Initial residual = 1.43408e-05, Final residual = 7.76778e-06, No Iterations 1
smoothSolver:  Solving for k, Initial residual = 0.00300498, Final residual = 0.000191659, No Iterations 6
ExecutionTime = 0.140202 s  ClockTime = 0 s

Time = 63s

smoothSolver:  Solving for Ux, Initial residual = 0.00296965, Final residual = 0.000204852, No Iterations 6
smoothSolver:  Solving for Uy, Initial residual = 0.117699, Final residual = 0.0116284, No Iterations 3
Pressure gradient source: uncorrected Ubar = 0.99999, pressure gradient = 0.00467639
GAMG:  Solving for p, Initial residual = 0.0401176, Final residual = 0.00257329, No Iterations 4
time step continuity errors : sum local = 7.5566e-07, global = -8.07762e-18, cumulative = 6.39463e-18
Pressure gradient source: uncorrected Ubar = 1, pressure gradient = 0.00443169
smoothSolver:  Solving for omega, Initial residual = 1.41976e-05, Final residual = 7.9963e-06, No Iterations 1
smoothSolver:  Solving for k, Initial residual = 0.00306374, Final residual = 0.000279147, No Iterations 5
ExecutionTime = 0.142189 s  ClockTime = 0 s

Time = 64s

smoothSolver:  Solving for Ux, Initial residual = 0.00290629, Final residual = 0.00019994, No Iterations 6
smoothSolver:  Solving for Uy, Initial residual = 0.0790826, Final residual = 0.0041953, No Iterations 4
Pressure gradient source: uncorrected Ubar = 0.99999, pressure gradient = 0.00466749
GAMG:  Solving for p, Initial residual = 0.0267852, Final residual = 0.00178627, No Iterations 7
time step continuity errors : sum local = 5.55e-07, global = -6.05085e-18, cumulative = 3.43774e-19
Pressure gradient source: uncorrected Ubar = 1, pressure gradient = 0.00443265
smoothSolver:  Solving for omega, Initial residual = 1.38641e-05, Final residual = 7.71779e-06, No Iterations 1
smoothSolver:  Solving for k, Initial residual = 0.0031209, Final residual = 0.000290717, No Iterations 5
ExecutionTime = 0.144261 s  ClockTime = 0 s

Time = 65s

smoothSolver:  Solving for Ux, Initial residual = 0.00285115, Final residual = 0.000195611, No Iterations 6
smoothSolver:  Solving for Uy, Initial residual = 0.0590278, Final residual = 0.00560121, No Iterations 3
Pressure gradient source: uncorrected Ubar = 0.99999, pressure gradient = 0.00468072
GAMG:  Solving for p, Initial residual = 0.0234977, Final residual = 0.00226014, No Iterations 6
time step continuity errors : sum local = 7.53885e-07, global = 7.78119e-19, cumulative = 1.12189e-18
Pressure gradient source: uncorrected Ubar = 1, pressure gradient = 0.00443542
smoothSolver:  Solving for omega, Initial residual = 1.35493e-05, Final residual = 7.24067e-06, No Iterations 1
smoothSolver:  Solving for k, Initial residual = 0.00320082, Final residual = 0.00020387, No Iterations 6
ExecutionTime = 0.146308 s  ClockTime = 0 s

Time = 66s

smoothSolver:  Solving for Ux, Initial residual = 0.00279589, Final residual = 0.000191203, No Iterations 6
smoothSolver:  Solving for Uy, Initial residual = 0.0740944, Final residual = 0.00426463, No Iterations 4
Pressure gradient source: uncorrected Ubar = 0.99999, pressure gradient = 0.00468142
GAMG:  Solving for p, Initial residual = 0.0221942, Final residual = 0.00185369, No Iterations 7
time step continuity errors : sum local = 5.47394e-07, global = -1.33857e-18, cumulative = -2.16677e-19
Pressure gradient source: uncorrected Ubar = 1, pressure gradient = 0.00443816
smoothSolver:  Solving for omega, Initial residual = 1.33208e-05, Final residual = 7.46302e-06, No Iterations 1
smoothSolver:  Solving for k, Initial residual = 0.00324819, Final residual = 0.000313176, No Iterations 5
ExecutionTime = 0.148416 s  ClockTime = 0 s

Time = 67s

smoothSolver:  Solving for Ux, Initial residual = 0.0027441, Final residual = 0.000186898, No Iterations 6
smoothSolver:  Solving for Uy, Initial residual = 0.0942993, Final residual = 0.00544282, No Iterations 4
Pressure gradient source: uncorrected Ubar = 0.99999, pressure gradient = 0.00467518
GAMG:  Solving for p, Initial residual = 0.0268806, Final residual = 0.00241911, No Iterations 7
time step continuity errors : sum local = 7.15293e-07, global = -9.04195e-19, cumulative = -1.12087e-18
Pressure gradient source: uncorrected Ubar = 1, pressure gradient = 0.00443991
smoothSolver:  Solving for omega, Initial residual = 1.30695e-05, Final residual = 7.18942e-06, No Iterations 1
smoothSolver:  Solving for k, Initial residual = 0.00331763, Final residual = 0.000210698, No Iterations 6
ExecutionTime = 0.150588 s  ClockTime = 0 s

Time = 68s

smoothSolver:  Solving for Ux, Initial residual = 0.00268571, Final residual = 0.000182405, No Iterations 6
smoothSolver:  Solving for Uy, Initial residual = 0.0690633, Final residual = 0.00363001, No Iterations 4
Pressure gradient source: uncorrected Ubar = 0.99999, pressure gradient = 0.00468441
GAMG:  Solving for p, Initial residual = 0.0220864, Final residual = 0.00206029, No Iterations 8
time step continuity errors : sum local = 5.76908e-07, global = -5.51095e-18, cumulative = -6.63182e-18
Pressure gradient source: uncorrected Ubar = 1, pressure gradient = 0.00444294
smoothSolver:  Solving for omega, Initial residual = 1.27178e-05, Final residual = 6.9406e-06, No Iterations 1
smoothSolver:  Solving for k, Initial residual = 0.00334946, Final residual = 0.000304876, No Iterations 5
ExecutionTime = 0.152798 s  ClockTime = 0 s

Time = 69s

smoothSolver:  Solving for Ux, Initial residual = 0.00263215, Final residual = 0.000178461, No Iterations 6
smoothSolver:  Solving for Uy, Initial residual = 0.0606533, Final residual = 0.00313159, No Iterations 4
Pressure gradient source: uncorrected Ubar = 0.99999, pressure gradient = 0.00469467
GAMG:  Solving for p, Initial residual = 0.0224902, Final residual = 0.00210809, No Iterations 8
time step continuity errors : sum local = 5.84979e-07, global = -6.3221e-19, cumulative = -7.26403e-18
Pressure gradient source: uncorrected Ubar = 1, pressure gradient = 0.00444729
smoothSolver:  Solving for omega, Initial residual = 1.25824e-05, Final residual = 7.10728e-06, No Iterations 1
smoothSolver:  Solving for k, Initial residual = 0.00347115, Final residual = 0.000230925, No Iterations 6
ExecutionTime = 0.154956 s  ClockTime = 0 s

Time = 70s

smoothSolver:  Solving for Ux, Initial residual = 0.00257711, Final residual = 0.000174163, No Iterations 6
smoothSolver:  Solving for Uy, Initial residual = 0.0625778, Final residual = 0.00492385, No Iterations 3
Pressure gradient source: uncorrected Ubar = 0.999991, pressure gradient = 0.00467926
GAMG:  Solving for p, Initial residual = 0.0251152, Final residual = 0.00215507, No Iterations 6
time step continuity errors : sum local = 5.82405e-07, global = 5.12172e-18, cumulative = -2.14231e-18
Pressure gradient source: uncorrected Ubar = 1, pressure gradient = 0.00444925
smoothSolver:  Solving for omega, Initial residual = 1.22455e-05, Final residual = 6.70042e-06, No Iterations 1
smoothSolver:  Solving for k, Initial residual = 0.0035253, Final residual = 0.000246949, No Iterations 6
ExecutionTime = 0.157 s  ClockTime = 0 s

Time = 71s

smoothSolver:  Solving for Ux, Initial residual = 0.00252195, Final residual = 0.000169855, No Iterations 6
smoothSolver:  Solving for Uy, Initial residual = 0.0442159, Final residual = 0.00288758, No Iterations 3
Pressure gradient source: uncorrected Ubar = 0.99999, pressure gradient = 0.00468604
GAMG:  Solving for p, Initial residual = 0.019578, Final residual = 0.00135151, No Iterations 7
time step continuity errors : sum local = 3.48786e-07, global = 4.06234e-18, cumulative = 1.92002e-18
Pressure gradient source: uncorrected Ubar = 1, pressure gradient = 0.00445224
smoothSolver:  Solving for omega, Initial residual = 1.19765e-05, Final residual = 6.56333e-06, No Iterations 1
smoothSolver:  Solving for k, Initial residual = 0.00360688, Final residual = 0.00027789, No Iterations 6
ExecutionTime = 0.159128 s  ClockTime = 0 s

Time = 72s

smoothSolver:  Solving for Ux, Initial residual = 0.00246875, Final residual = 0.000165846, No Iterations 6
smoothSolver:  Solving for Uy, Initial residual = 0.0405235, Final residual = 0.0035553, No Iterations 3
Pressure gradient source: uncorrected Ubar = 0.99999, pressure gradient = 0.00470222
GAMG:  Solving for p, Initial residual = 0.014633, Final residual = 0.00129377, No Iterations 7
time step continuity errors : sum local = 3.19339e-07, global = -9.89338e-18, cumulative = -7.97336e-18
Pressure gradient source: uncorrected Ubar = 1, pressure gradient = 0.00445749
smoothSolver:  Solving for omega, Initial residual = 1.18075e-05, Final residual = 6.734e-06, No Iterations 1
smoothSolver:  Solving for k, Initial residual = 0.00364171, Final residual = 0.00027698, No Iterations 6
ExecutionTime = 0.161208 s  ClockTime = 0 s

Time = 73s

smoothSolver:  Solving for Ux, Initial residual = 0.00241766, Final residual = 0.00016185, No Iterations 6
smoothSolver:  Solving for Uy, Initial residual = 0.0430842, Final residual = 0.00313238, No Iterations 3
Pressure gradient source: uncorrected Ubar = 0.999991, pressure gradient = 0.00469125
GAMG:  Solving for p, Initial residual = 0.0190175, Final residual = 0.00157427, No Iterations 7
time step continuity errors : sum local = 3.93686e-07, global = 1.20777e-17, cumulative = 4.10437e-18
Pressure gradient source: uncorrected Ubar = 1, pressure gradient = 0.00446093
smoothSolver:  Solving for omega, Initial residual = 1.15012e-05, Final residual = 6.29615e-06, No Iterations 1
smoothSolver:  Solving for k, Initial residual = 0.00363539, Final residual = 0.000335472, No Iterations 5
ExecutionTime = 0.163284 s  ClockTime = 0 s

Time = 74s

smoothSolver:  Solving for Ux, Initial residual = 0.00237097, Final residual = 0.000158391, No Iterations 6
smoothSolver:  Solving for Uy, Initial residual = 0.0456516, Final residual = 0.00368156, No Iterations 3
Pressure gradient source: uncorrected Ubar = 0.999989, pressure gradient = 0.00472277
GAMG:  Solving for p, Initial residual = 0.0203615, Final residual = 0.00144384, No Iterations 7
time step continuity errors : sum local = 3.4965e-07, global = 7.65868e-18, cumulative = 1.17631e-17
Pressure gradient source: uncorrected Ubar = 1, pressure gradient = 0.00446858
smoothSolver:  Solving for omega, Initial residual = 1.12209e-05, Final residual = 6.14757e-06, No Iterations 1
smoothSolver:  Solving for k, Initial residual = 0.00371725, Final residual = 0.000277436, No Iterations 6
ExecutionTime = 0.165446 s  ClockTime = 0 s

Time = 75s

smoothSolver:  Solving for Ux, Initial residual = 0.00232025, Final residual = 0.00015478, No Iterations 6
smoothSolver:  Solving for Uy, Initial residual = 0.0439267, Final residual = 0.00376694, No Iterations 3
Pressure gradient source: uncorrected Ubar = 0.99999, pressure gradient = 0.00472579
GAMG:  Solving for p, Initial residual = 0.0240714, Final residual = 0.00193563, No Iterations 5
time step continuity errors : sum local = 4.39099e-07, global = 2.22436e-18, cumulative = 1.39874e-17
Pressure gradient source: uncorrected Ubar = 1, pressure gradient = 0.00447611
smoothSolver:  Solving for omega, Initial residual = 1.10739e-05, Final residual = 6.41912e-06, No Iterations 1
smoothSolver:  Solving for k, Initial residual = 0.00373642, Final residual = 0.000279725, No Iterations 6
ExecutionTime = 0.167541 s  ClockTime = 0 s

Time = 76s

smoothSolver:  Solving for Ux, Initial residual = 0.00226897, Final residual = 0.000151091, No Iterations 6
smoothSolver:  Solving for Uy, Initial residual = 0.0377627, Final residual = 0.00326176, No Iterations 3
Pressure gradient source: uncorrected Ubar = 0.99999, pressure gradient = 0.00471771
GAMG:  Solving for p, Initial residual = 0.0151563, Final residual = 0.00147054, No Iterations 7
time step continuity errors : sum local = 3.16994e-07, global = -1.50278e-18, cumulative = 1.24846e-17
Pressure gradient source: uncorrected Ubar = 1, pressure gradient = 0.00448195
smoothSolver:  Solving for omega, Initial residual = 1.07793e-05, Final residual = 6.13171e-06, No Iterations 1
smoothSolver:  Solving for k, Initial residual = 0.00378717, Final residual = 0.000308156, No Iterations 6
ExecutionTime = 0.169737 s  ClockTime = 0 s

Time = 77s

smoothSolver:  Solving for Ux, Initial residual = 0.0022205, Final residual = 0.000147506, No Iterations 6
smoothSolver:  Solving for Uy, Initial residual = 0.0453796, Final residual = 0.00358241, No Iterations 3
Pressure gradient source: uncorrected Ubar = 0.99999, pressure gradient = 0.0047292
GAMG:  Solving for p, Initial residual = 0.0184588, Final residual = 0.00171995, No Iterations 3
time step continuity errors : sum local = 3.72683e-07, global = 2.00625e-18, cumulative = 1.44909e-17
Pressure gradient source: uncorrected Ubar = 1, pressure gradient = 0.004489
smoothSolver:  Solving for omega, Initial residual = 1.04767e-05, Final residual = 5.56585e-06, No Iterations 1
smoothSolver:  Solving for k, Initial residual = 0.00379501, Final residual = 0.000294625, No Iterations 6
ExecutionTime = 0.171768 s  ClockTime = 0 s

Time = 78s

smoothSolver:  Solving for Ux, Initial residual = 0.00217007, Final residual = 0.000143871, No Iterations 6
smoothSolver:  Solving for Uy, Initial residual = 0.0693967, Final residual = 0.00576805, No Iterations 3
Pressure gradient source: uncorrected Ubar = 0.99999, pressure gradient = 0.00472995
GAMG:  Solving for p, Initial residual = 0.0250286, Final residual = 0.00250201, No Iterations 3
time step continuity errors : sum local = 5.10211e-07, global = 2.47767e-19, cumulative = 1.47387e-17
Pressure gradient source: uncorrected Ubar = 1, pressure gradient = 0.00449564
smoothSolver:  Solving for omega, Initial residual = 1.03354e-05, Final residual = 5.93339e-06, No Iterations 1
smoothSolver:  Solving for k, Initial residual = 0.00378068, Final residual = 0.000242959, No Iterations 6
ExecutionTime = 0.173745 s  ClockTime = 0 s

Time = 79s

smoothSolver:  Solving for Ux, Initial residual = 0.00212489, Final residual = 0.000140809, No Iterations 6
smoothSolver:  Solving for Uy, Initial residual = 0.100866, Final residual = 0.00487594, No Iterations 4
Pressure gradient source: uncorrected Ubar = 0.99999, pressure gradient = 0.00474474
GAMG:  Solving for p, Initial residual = 0.0389699, Final residual = 0.00298515, No Iterations 7
time step continuity errors : sum local = 6.69916e-07, global = -3.12166e-18, cumulative = 1.1617e-17
Pressure gradient source: uncorrected Ubar = 1, pressure gradient = 0.00450384
smoothSolver:  Solving for omega, Initial residual = 1.01091e-05, Final residual = 5.72544e-06, No Iterations 1
smoothSolver:  Solving for k, Initial residual = 0.00373687, Final residual = 0.000339432, No Iterations 5
ExecutionTime = 0.175768 s  ClockTime = 0 s

Time = 80s

smoothSolver:  Solving for Ux, Initial residual = 0.00208322, Final residual = 0.000208168, No Iterations 5
smoothSolver:  Solving for Uy, Initial residual = 0.12121, Final residual = 0.00617258, No Iterations 4
Pressure gradient source: uncorrected Ubar = 0.999985, pressure gradient = 0.00486177
GAMG:  Solving for p, Initial residual = 0.0340187, Final residual = 0.00334982, No Iterations 3
time step continuity errors : sum local = 6.75501e-07, global = 7.74089e-19, cumulative = 1.23911e-17
Pressure gradient source: uncorrected Ubar = 0.999999, pressure gradient = 0.00452078
smoothSolver:  Solving for omega, Initial residual = 9.75107e-06, Final residual = 9.75107e-06, No Iterations 0
smoothSolver:  Solving for k, Initial residual = 0.00389767, Final residual = 0.000339462, No Iterations 5
ExecutionTime = 0.177683 s  ClockTime = 0 s

Time = 81s

smoothSolver:  Solving for Ux, Initial residual = 0.00201591, Final residual = 0.000201342, No Iterations 5
smoothSolver:  Solving for Uy, Initial residual = 0.0841061, Final residual = 0.00574471, No Iterations 4
Pressure gradient source: uncorrected Ubar = 0.999988, pressure gradient = 0.00481287
GAMG:  Solving for p, Initial residual = 0.0243234, Final residual = 0.000910343, No Iterations 4
time step continuity errors : sum local = 1.66174e-07, global = -4.58973e-18, cumulative = 7.80135e-18
Pressure gradient source: uncorrected Ubar = 1, pressure gradient = 0.00452946
smoothSolver:  Solving for omega, Initial residual = 1.11383e-05, Final residual = 5.82474e-06, No Iterations 1
smoothSolver:  Solving for k, Initial residual = 0.00405938, Final residual = 0.000272581, No Iterations 6
ExecutionTime = 0.179616 s  ClockTime = 0 s

Time = 82s

smoothSolver:  Solving for Ux, Initial residual = 0.00197661, Final residual = 0.000197457, No Iterations 5
smoothSolver:  Solving for Uy, Initial residual = 0.0869676, Final residual = 0.00786655, No Iterations 3
Pressure gradient source: uncorrected Ubar = 0.999987, pressure gradient = 0.00485246
GAMG:  Solving for p, Initial residual = 0.0323971, Final residual = 0.00247002, No Iterations 3
time step continuity errors : sum local = 4.35502e-07, global = 1.44402e-17, cumulative = 2.22415e-17
Pressure gradient source: uncorrected Ubar = 0.999999, pressure gradient = 0.00454315
smoothSolver:  Solving for omega, Initial residual = 9.96171e-06, Final residual = 9.96171e-06, No Iterations 0
smoothSolver:  Solving for k, Initial residual = 0.00417125, Final residual = 0.000397712, No Iterations 5
ExecutionTime = 0.181653 s  ClockTime = 0 s

Time = 83s

smoothSolver:  Solving for Ux, Initial residual = 0.00190842, Final residual = 0.000190076, No Iterations 5
smoothSolver:  Solving for Uy, Initial residual = 0.07293, Final residual = 0.00686737, No Iterations 3
Pressure gradient source: uncorrected Ubar = 0.99999, pressure gradient = 0.0047888
GAMG:  Solving for p, Initial residual = 0.034607, Final residual = 0.00311483, No Iterations 3
time step continuity errors : sum local = 5.49424e-07, global = -3.63522e-18, cumulative = 1.86063e-17
Pressure gradient source: uncorrected Ubar = 1, pressure gradient = 0.00454695
smoothSolver:  Solving for omega, Initial residual = 1.11882e-05, Final residual = 6.09855e-06, No Iterations 1
smoothSolver:  Solving for k, Initial residual = 0.00424355, Final residual = 0.000374988, No Iterations 5
ExecutionTime = 0.183762 s  ClockTime = 0 s

Time = 84s

smoothSolver:  Solving for Ux, Initial residual = 0.00186537, Final residual = 0.000185743, No Iterations 5
smoothSolver:  Solving for Uy, Initial residual = 0.0526853, Final residual = 0.00432193, No Iterations 3
Pressure gradient source: uncorrected Ubar = 0.999988, pressure gradient = 0.00483201
GAMG:  Solving for p, Initial residual = 0.0302337, Final residual = 0.00285202, No Iterations 3
time step continuity errors : sum local = 4.95849e-07, global = -4.36074e-18, cumulative = 1.42456e-17
Pressure gradient source: uncorrected Ubar = 1, pressure gradient = 0.00455687
smoothSolver:  Solving for omega, Initial residual = 1.00545e-05, Final residual = 5.84342e-06, No Iterations 1
smoothSolver:  Solving for k, Initial residual = 0.00418058, Final residual = 0.000390666, No Iterations 5
ExecutionTime = 0.185863 s  ClockTime = 0 s

Time = 85s

smoothSolver:  Solving for Ux, Initial residual = 0.00182822, Final residual = 0.000182106, No Iterations 5
smoothSolver:  Solving for Uy, Initial residual = 0.106963, Final residual = 0.00581996, No Iterations 4
Pressure gradient source: uncorrected Ubar = 0.999988, pressure gradient = 0.0048444
GAMG:  Solving for p, Initial residual = 0.0489035, Final residual = 0.00343004, No Iterations 6
time step continuity errors : sum local = 6.38201e-07, global = 4.5976e-18, cumulative = 1.88432e-17
Pressure gradient source: uncorrected Ubar = 1, pressure gradient = 0.00456771
smoothSolver:  Solving for omega, Initial residual = 9.72633e-06, Final residual = 9.72633e-06, No Iterations 0
smoothSolver:  Solving for k, Initial residual = 0.0042396, Final residual = 0.00038705, No Iterations 5
ExecutionTime = 0.187967 s  ClockTime = 0 s

Time = 86s

smoothSolver:  Solving for Ux, Initial residual = 0.00175918, Final residual = 0.00017485, No Iterations 5
smoothSolver:  Solving for Uy, Initial residual = 0.117113, Final residual = 0.00996729, No Iterations 3
Pressure gradient source: uncorrected Ubar = 0.999991, pressure gradient = 0.00479456
GAMG:  Solving for p, Initial residual = 0.0455238, Final residual = 0.00353976, No Iterations 6
time step continuity errors : sum local = 6.44571e-07, global = 7.74096e-18, cumulative = 2.65841e-17
Pressure gradient source: uncorrected Ubar = 1, pressure gradient = 0.00457103
smoothSolver:  Solving for omega, Initial residual = 1.08683e-05, Final residual = 5.85627e-06, No Iterations 1
smoothSolver:  Solving for k, Initial residual = 0.00435544, Final residual = 0.000396565, No Iterations 5
ExecutionTime = 0.189958 s  ClockTime = 0 s

Time = 87s

smoothSolver:  Solving for Ux, Initial residual = 0.00172538, Final residual = 0.000171559, No Iterations 5
smoothSolver:  Solving for Uy, Initial residual = 0.0791965, Final residual = 0.00495018, No Iterations 4
Pressure gradient source: uncorrected Ubar = 0.999988, pressure gradient = 0.00487162
GAMG:  Solving for p, Initial residual = 0.0336391, Final residual = 0.00296925, No Iterations 5
time step continuity errors : sum local = 5.28536e-07, global = -6.71462e-18, cumulative = 1.98695e-17
Pressure gradient source: uncorrected Ubar = 0.999999, pressure gradient = 0.00458551
smoothSolver:  Solving for omega, Initial residual = 9.70489e-06, Final residual = 9.70489e-06, No Iterations 0
smoothSolver:  Solving for k, Initial residual = 0.00449249, Final residual = 0.000449017, No Iterations 5
ExecutionTime = 0.191902 s  ClockTime = 0 s

Time = 88s

smoothSolver:  Solving for Ux, Initial residual = 0.00166156, Final residual = 0.000164887, No Iterations 5
smoothSolver:  Solving for Uy, Initial residual = 0.0844032, Final residual = 0.00437965, No Iterations 4
Pressure gradient source: uncorrected Ubar = 0.999991, pressure gradient = 0.00481241
GAMG:  Solving for p, Initial residual = 0.0448006, Final residual = 0.00370153, No Iterations 4
time step continuity errors : sum local = 6.60769e-07, global = -6.02282e-19, cumulative = 1.92672e-17
Pressure gradient source: uncorrected Ubar = 1, pressure gradient = 0.00459057
smoothSolver:  Solving for omega, Initial residual = 1.06594e-05, Final residual = 5.93268e-06, No Iterations 1
smoothSolver:  Solving for k, Initial residual = 0.00443461, Final residual = 0.000369139, No Iterations 5
ExecutionTime = 0.193832 s  ClockTime = 0 s

Time = 89s

smoothSolver:  Solving for Ux, Initial residual = 0.00162216, Final residual = 0.000161128, No Iterations 5
smoothSolver:  Solving for Uy, Initial residual = 0.215548, Final residual = 0.0121572, No Iterations 4
Pressure gradient source: uncorrected Ubar = 0.999989, pressure gradient = 0.00484414
[...]
Pressure gradient source: uncorrected Ubar = 1, pressure gradient = 0.00443761
smoothSolver:  Solving for omega, Initial residual = 7.47537e-06, Final residual = 7.47537e-06, No Iterations 0
smoothSolver:  Solving for k, Initial residual = 9.77062e-05, Final residual = 6.58398e-06, No Iterations 5
ExecutionTime = 0.670465 s  ClockTime = 1 s

Time = 319s

smoothSolver:  Solving for Ux, Initial residual = 9.76747e-06, Final residual = 9.76747e-06, No Iterations 0
smoothSolver:  Solving for Uy, Initial residual = 0.0121147, Final residual = 0.000742248, No Iterations 3
Pressure gradient source: uncorrected Ubar = 1, pressure gradient = 0.00443761
GAMG:  Solving for p, Initial residual = 0.00392872, Final residual = 0.000288924, No Iterations 7
time step continuity errors : sum local = 1.29994e-08, global = 2.39743e-18, cumulative = -7.64115e-17
Pressure gradient source: uncorrected Ubar = 1, pressure gradient = 0.0044373
smoothSolver:  Solving for omega, Initial residual = 7.47163e-06, Final residual = 7.47163e-06, No Iterations 0
smoothSolver:  Solving for k, Initial residual = 9.79505e-05, Final residual = 6.66668e-06, No Iterations 5
ExecutionTime = 0.672469 s  ClockTime = 1 s

Time = 320s

smoothSolver:  Solving for Ux, Initial residual = 1.03005e-05, Final residual = 6.72306e-06, No Iterations 1
smoothSolver:  Solving for Uy, Initial residual = 0.0130556, Final residual = 0.0006775, No Iterations 3
Pressure gradient source: uncorrected Ubar = 1, pressure gradient = 0.004437
GAMG:  Solving for p, Initial residual = 0.00680703, Final residual = 0.000650136, No Iterations 7
time step continuity errors : sum local = 3.26825e-08, global = 5.17651e-18, cumulative = -7.1235e-17
Pressure gradient source: uncorrected Ubar = 1, pressure gradient = 0.00443691
smoothSolver:  Solving for omega, Initial residual = 7.46061e-06, Final residual = 7.46061e-06, No Iterations 0
smoothSolver:  Solving for k, Initial residual = 9.60971e-05, Final residual = 6.05537e-06, No Iterations 5
ExecutionTime = 0.674457 s  ClockTime = 1 s

Time = 321s

smoothSolver:  Solving for Ux, Initial residual = 1.06394e-05, Final residual = 6.89872e-06, No Iterations 1
smoothSolver:  Solving for Uy, Initial residual = 0.0170314, Final residual = 0.00146466, No Iterations 3
Pressure gradient source: uncorrected Ubar = 1, pressure gradient = 0.00443671
GAMG:  Solving for p, Initial residual = 0.00548526, Final residual = 0.000516894, No Iterations 10
time step continuity errors : sum local = 2.42802e-08, global = 1.32141e-18, cumulative = -6.99136e-17
Pressure gradient source: uncorrected Ubar = 1, pressure gradient = 0.00443658
smoothSolver:  Solving for omega, Initial residual = 7.44856e-06, Final residual = 7.44856e-06, No Iterations 0
smoothSolver:  Solving for k, Initial residual = 9.42265e-05, Final residual = 7.23533e-06, No Iterations 5
ExecutionTime = 0.676547 s  ClockTime = 1 s

Time = 322s

smoothSolver:  Solving for Ux, Initial residual = 1.10199e-05, Final residual = 7.10511e-06, No Iterations 1
smoothSolver:  Solving for Uy, Initial residual = 0.0342469, Final residual = 0.00173871, No Iterations 4
Pressure gradient source: uncorrected Ubar = 1, pressure gradient = 0.00443615
GAMG:  Solving for p, Initial residual = 0.00650342, Final residual = 0.000440558, No Iterations 7
time step continuity errors : sum local = 1.96883e-08, global = 5.18312e-18, cumulative = -6.47305e-17
Pressure gradient source: uncorrected Ubar = 1, pressure gradient = 0.00443616
smoothSolver:  Solving for omega, Initial residual = 7.43762e-06, Final residual = 7.43762e-06, No Iterations 0
smoothSolver:  Solving for k, Initial residual = 9.33801e-05, Final residual = 6.05486e-06, No Iterations 5
ExecutionTime = 0.678552 s  ClockTime = 1 s

Time = 323s

smoothSolver:  Solving for Ux, Initial residual = 1.13595e-05, Final residual = 7.29148e-06, No Iterations 1
smoothSolver:  Solving for Uy, Initial residual = 0.0341455, Final residual = 0.00340818, No Iterations 3
Pressure gradient source: uncorrected Ubar = 1, pressure gradient = 0.00443593
GAMG:  Solving for p, Initial residual = 0.00535529, Final residual = 0.000467428, No Iterations 9
time step continuity errors : sum local = 2.05265e-08, global = 8.58305e-18, cumulative = -5.61474e-17
Pressure gradient source: uncorrected Ubar = 1, pressure gradient = 0.00443583
smoothSolver:  Solving for omega, Initial residual = 7.42738e-06, Final residual = 7.42738e-06, No Iterations 0
smoothSolver:  Solving for k, Initial residual = 9.23688e-05, Final residual = 7.14001e-06, No Iterations 5
ExecutionTime = 0.680731 s  ClockTime = 1 s

Time = 324s

smoothSolver:  Solving for Ux, Initial residual = 1.17497e-05, Final residual = 7.51687e-06, No Iterations 1
smoothSolver:  Solving for Uy, Initial residual = 0.0341597, Final residual = 0.00332432, No Iterations 3
Pressure gradient source: uncorrected Ubar = 1, pressure gradient = 0.00443542
GAMG:  Solving for p, Initial residual = 0.0062316, Final residual = 0.000511692, No Iterations 9
time step continuity errors : sum local = 2.30648e-08, global = 3.26296e-18, cumulative = -5.28844e-17
Pressure gradient source: uncorrected Ubar = 1, pressure gradient = 0.00443543
smoothSolver:  Solving for omega, Initial residual = 7.41786e-06, Final residual = 7.41786e-06, No Iterations 0
smoothSolver:  Solving for k, Initial residual = 9.04698e-05, Final residual = 5.97301e-06, No Iterations 5
ExecutionTime = 0.683043 s  ClockTime = 1 s

Time = 325s

smoothSolver:  Solving for Ux, Initial residual = 1.21744e-05, Final residual = 7.75891e-06, No Iterations 1
smoothSolver:  Solving for Uy, Initial residual = 0.0311392, Final residual = 0.00270013, No Iterations 3
Pressure gradient source: uncorrected Ubar = 1, pressure gradient = 0.00443509
GAMG:  Solving for p, Initial residual = 0.00405628, Final residual = 0.000362992, No Iterations 10
time step continuity errors : sum local = 1.55716e-08, global = 2.40433e-18, cumulative = -5.04801e-17
Pressure gradient source: uncorrected Ubar = 1, pressure gradient = 0.00443507
smoothSolver:  Solving for omega, Initial residual = 7.4081e-06, Final residual = 7.4081e-06, No Iterations 0
smoothSolver:  Solving for k, Initial residual = 8.944e-05, Final residual = 6.8865e-06, No Iterations 5
ExecutionTime = 0.685662 s  ClockTime = 1 s

Time = 326s

smoothSolver:  Solving for Ux, Initial residual = 1.26132e-05, Final residual = 8.04503e-06, No Iterations 1
smoothSolver:  Solving for Uy, Initial residual = 0.0246654, Final residual = 0.00212876, No Iterations 3
Pressure gradient source: uncorrected Ubar = 1, pressure gradient = 0.0044347
GAMG:  Solving for p, Initial residual = 0.00541292, Final residual = 0.000539091, No Iterations 9
time step continuity errors : sum local = 2.37463e-08, global = 4.72597e-18, cumulative = -4.57541e-17
Pressure gradient source: uncorrected Ubar = 1, pressure gradient = 0.00443469
smoothSolver:  Solving for omega, Initial residual = 7.39916e-06, Final residual = 7.39916e-06, No Iterations 0
smoothSolver:  Solving for k, Initial residual = 8.7203e-05, Final residual = 9.59573e-06, No Iterations 4
ExecutionTime = 0.687776 s  ClockTime = 1 s

Time = 327s

smoothSolver:  Solving for Ux, Initial residual = 1.30934e-05, Final residual = 8.33124e-06, No Iterations 1
smoothSolver:  Solving for Uy, Initial residual = 0.024692, Final residual = 0.00216968, No Iterations 3
Pressure gradient source: uncorrected Ubar = 1, pressure gradient = 0.00443441
GAMG:  Solving for p, Initial residual = 0.00396386, Final residual = 0.000356585, No Iterations 10
time step continuity errors : sum local = 1.70849e-08, global = 3.76317e-18, cumulative = -4.1991e-17
Pressure gradient source: uncorrected Ubar = 1, pressure gradient = 0.00443435
smoothSolver:  Solving for omega, Initial residual = 7.3905e-06, Final residual = 7.3905e-06, No Iterations 0
smoothSolver:  Solving for k, Initial residual = 8.67898e-05, Final residual = 6.60058e-06, No Iterations 5
ExecutionTime = 0.689912 s  ClockTime = 1 s

Time = 328s

smoothSolver:  Solving for Ux, Initial residual = 1.36037e-05, Final residual = 8.63494e-06, No Iterations 1
smoothSolver:  Solving for Uy, Initial residual = 0.0162834, Final residual = 0.00121524, No Iterations 3
Pressure gradient source: uncorrected Ubar = 1, pressure gradient = 0.00443405
GAMG:  Solving for p, Initial residual = 0.00495356, Final residual = 0.000367808, No Iterations 9
time step continuity errors : sum local = 1.71515e-08, global = -6.29429e-18, cumulative = -4.82853e-17
Pressure gradient source: uncorrected Ubar = 1, pressure gradient = 0.00443399
smoothSolver:  Solving for omega, Initial residual = 7.38166e-06, Final residual = 7.38166e-06, No Iterations 0
smoothSolver:  Solving for k, Initial residual = 8.46473e-05, Final residual = 6.45759e-06, No Iterations 5
ExecutionTime = 0.691951 s  ClockTime = 1 s

Time = 329s

smoothSolver:  Solving for Ux, Initial residual = 1.42342e-05, Final residual = 9.02121e-06, No Iterations 1
smoothSolver:  Solving for Uy, Initial residual = 0.0193024, Final residual = 0.00140781, No Iterations 3
Pressure gradient source: uncorrected Ubar = 1, pressure gradient = 0.00443359
GAMG:  Solving for p, Initial residual = 0.00448904, Final residual = 0.000369744, No Iterations 6
time step continuity errors : sum local = 1.76399e-08, global = 2.60086e-18, cumulative = -4.56844e-17
Pressure gradient source: uncorrected Ubar = 1, pressure gradient = 0.00443361
smoothSolver:  Solving for omega, Initial residual = 7.3742e-06, Final residual = 7.3742e-06, No Iterations 0
smoothSolver:  Solving for k, Initial residual = 8.38162e-05, Final residual = 5.94891e-06, No Iterations 5
ExecutionTime = 0.693936 s  ClockTime = 1 s

Time = 330s

smoothSolver:  Solving for Ux, Initial residual = 1.47911e-05, Final residual = 9.3536e-06, No Iterations 1
smoothSolver:  Solving for Uy, Initial residual = 0.0174329, Final residual = 0.00157935, No Iterations 3
Pressure gradient source: uncorrected Ubar = 1, pressure gradient = 0.00443339
GAMG:  Solving for p, Initial residual = 0.00413766, Final residual = 0.000376448, No Iterations 9
time step continuity errors : sum local = 1.67898e-08, global = 3.66946e-18, cumulative = -4.20149e-17
Pressure gradient source: uncorrected Ubar = 1, pressure gradient = 0.00443328
smoothSolver:  Solving for omega, Initial residual = 7.36627e-06, Final residual = 7.36627e-06, No Iterations 0
smoothSolver:  Solving for k, Initial residual = 8.04663e-05, Final residual = 8.44537e-06, No Iterations 4
ExecutionTime = 0.695989 s  ClockTime = 1 s

Time = 331s

smoothSolver:  Solving for Ux, Initial residual = 1.52531e-05, Final residual = 9.63726e-06, No Iterations 1
smoothSolver:  Solving for Uy, Initial residual = 0.0149823, Final residual = 0.00110082, No Iterations 3
Pressure gradient source: uncorrected Ubar = 1, pressure gradient = 0.00443297
GAMG:  Solving for p, Initial residual = 0.00298725, Final residual = 0.00029423, No Iterations 9
time step continuity errors : sum local = 1.32676e-08, global = -1.13923e-17, cumulative = -5.34072e-17
Pressure gradient source: uncorrected Ubar = 1, pressure gradient = 0.00443293
smoothSolver:  Solving for omega, Initial residual = 7.35882e-06, Final residual = 7.35882e-06, No Iterations 0
smoothSolver:  Solving for k, Initial residual = 8.15339e-05, Final residual = 6.88962e-06, No Iterations 5
ExecutionTime = 0.698239 s  ClockTime = 1 s

Time = 332s

smoothSolver:  Solving for Ux, Initial residual = 1.58513e-05, Final residual = 6.55508e-06, No Iterations 2
smoothSolver:  Solving for Uy, Initial residual = 0.0131692, Final residual = 0.000830384, No Iterations 3
Pressure gradient source: uncorrected Ubar = 1, pressure gradient = 0.00443325
GAMG:  Solving for p, Initial residual = 0.00415405, Final residual = 0.000392102, No Iterations 3
time step continuity errors : sum local = 1.74126e-08, global = -1.33876e-18, cumulative = -5.4746e-17
Pressure gradient source: uncorrected Ubar = 1, pressure gradient = 0.00443292
smoothSolver:  Solving for omega, Initial residual = 7.34809e-06, Final residual = 7.34809e-06, No Iterations 0
smoothSolver:  Solving for k, Initial residual = 7.69793e-05, Final residual = 9.1523e-06, No Iterations 4
ExecutionTime = 0.700703 s  ClockTime = 1 s

Time = 333s

smoothSolver:  Solving for Ux, Initial residual = 1.63173e-05, Final residual = 6.72499e-06, No Iterations 2
smoothSolver:  Solving for Uy, Initial residual = 0.0102137, Final residual = 0.000926855, No Iterations 3
Pressure gradient source: uncorrected Ubar = 1, pressure gradient = 0.0044317
GAMG:  Solving for p, Initial residual = 0.0047354, Final residual = 0.000436912, No Iterations 3
time step continuity errors : sum local = 1.88221e-08, global = -3.48422e-18, cumulative = -5.82302e-17
Pressure gradient source: uncorrected Ubar = 1, pressure gradient = 0.0044326
smoothSolver:  Solving for omega, Initial residual = 7.33805e-06, Final residual = 7.33805e-06, No Iterations 0
smoothSolver:  Solving for k, Initial residual = 7.53776e-05, Final residual = 8.80194e-06, No Iterations 4
ExecutionTime = 0.702732 s  ClockTime = 1 s

Time = 334s

smoothSolver:  Solving for Ux, Initial residual = 1.66772e-05, Final residual = 6.85539e-06, No Iterations 2
smoothSolver:  Solving for Uy, Initial residual = 0.0165777, Final residual = 0.00129999, No Iterations 3
Pressure gradient source: uncorrected Ubar = 1, pressure gradient = 0.00443146
GAMG:  Solving for p, Initial residual = 0.00296369, Final residual = 0.000256718, No Iterations 3
time step continuity errors : sum local = 1.12508e-08, global = 2.07609e-18, cumulative = -5.61541e-17
Pressure gradient source: uncorrected Ubar = 1, pressure gradient = 0.0044323
smoothSolver:  Solving for omega, Initial residual = 7.32852e-06, Final residual = 7.32852e-06, No Iterations 0
smoothSolver:  Solving for k, Initial residual = 7.31042e-05, Final residual = 8.17911e-06, No Iterations 4
ExecutionTime = 0.704658 s  ClockTime = 1 s

Time = 335s

smoothSolver:  Solving for Ux, Initial residual = 1.7098e-05, Final residual = 7.01542e-06, No Iterations 2
smoothSolver:  Solving for Uy, Initial residual = 0.0146447, Final residual = 0.00109382, No Iterations 3
Pressure gradient source: uncorrected Ubar = 1, pressure gradient = 0.00443097
GAMG:  Solving for p, Initial residual = 0.00396571, Final residual = 0.000236449, No Iterations 4
time step continuity errors : sum local = 9.58578e-09, global = -1.65188e-18, cumulative = -5.7806e-17
Pressure gradient source: uncorrected Ubar = 1, pressure gradient = 0.00443198
smoothSolver:  Solving for omega, Initial residual = 7.31923e-06, Final residual = 7.31923e-06, No Iterations 0
smoothSolver:  Solving for k, Initial residual = 7.19278e-05, Final residual = 9.60625e-06, No Iterations 4
ExecutionTime = 0.706606 s  ClockTime = 1 s

Time = 336s

smoothSolver:  Solving for Ux, Initial residual = 1.74338e-05, Final residual = 7.132e-06, No Iterations 2
smoothSolver:  Solving for Uy, Initial residual = 0.0103959, Final residual = 0.000787967, No Iterations 3
Pressure gradient source: uncorrected Ubar = 1, pressure gradient = 0.00443065
GAMG:  Solving for p, Initial residual = 0.00442797, Final residual = 0.000414784, No Iterations 3
time step continuity errors : sum local = 1.70831e-08, global = 8.14004e-19, cumulative = -5.6992e-17
Pressure gradient source: uncorrected Ubar = 1, pressure gradient = 0.00443167
smoothSolver:  Solving for omega, Initial residual = 7.31024e-06, Final residual = 7.31024e-06, No Iterations 0
smoothSolver:  Solving for k, Initial residual = 6.8373e-05, Final residual = 7.03401e-06, No Iterations 4
ExecutionTime = 0.70847 s  ClockTime = 1 s

Time = 337s

smoothSolver:  Solving for Ux, Initial residual = 1.77769e-05, Final residual = 7.26915e-06, No Iterations 2
smoothSolver:  Solving for Uy, Initial residual = 0.0127829, Final residual = 0.000731472, No Iterations 3
Pressure gradient source: uncorrected Ubar = 1, pressure gradient = 0.00443031
GAMG:  Solving for p, Initial residual = 0.00391046, Final residual = 0.000341468, No Iterations 5
time step continuity errors : sum local = 1.52709e-08, global = -5.2121e-18, cumulative = -6.22041e-17
Pressure gradient source: uncorrected Ubar = 1, pressure gradient = 0.00443136
smoothSolver:  Solving for omega, Initial residual = 7.30143e-06, Final residual = 7.30143e-06, No Iterations 0
smoothSolver:  Solving for k, Initial residual = 6.75888e-05, Final residual = 8.48226e-06, No Iterations 4
ExecutionTime = 0.710428 s  ClockTime = 1 s

Time = 338s

smoothSolver:  Solving for Ux, Initial residual = 1.81047e-05, Final residual = 7.39731e-06, No Iterations 2
smoothSolver:  Solving for Uy, Initial residual = 0.0103559, Final residual = 0.000762341, No Iterations 3
Pressure gradient source: uncorrected Ubar = 1, pressure gradient = 0.00443005
GAMG:  Solving for p, Initial residual = 0.00306111, Final residual = 0.000250636, No Iterations 7
time step continuity errors : sum local = 1.14294e-08, global = -1.70435e-18, cumulative = -6.39085e-17
Pressure gradient source: uncorrected Ubar = 1, pressure gradient = 0.00443107
smoothSolver:  Solving for omega, Initial residual = 7.2929e-06, Final residual = 7.2929e-06, No Iterations 0
smoothSolver:  Solving for k, Initial residual = 6.47516e-05, Final residual = 6.63519e-06, No Iterations 4
ExecutionTime = 0.712482 s  ClockTime = 1 s

Time = 339s

smoothSolver:  Solving for Ux, Initial residual = 1.84205e-05, Final residual = 7.52093e-06, No Iterations 2
smoothSolver:  Solving for Uy, Initial residual = 0.0109043, Final residual = 0.000771155, No Iterations 3
Pressure gradient source: uncorrected Ubar = 1, pressure gradient = 0.00442965
GAMG:  Solving for p, Initial residual = 0.0030705, Final residual = 0.000237963, No Iterations 9
time step continuity errors : sum local = 1.0487e-08, global = 5.37137e-18, cumulative = -5.85371e-17
Pressure gradient source: uncorrected Ubar = 1, pressure gradient = 0.00443077
smoothSolver:  Solving for omega, Initial residual = 7.28458e-06, Final residual = 7.28458e-06, No Iterations 0
smoothSolver:  Solving for k, Initial residual = 6.31293e-05, Final residual = 8.12226e-06, No Iterations 4
ExecutionTime = 0.714759 s  ClockTime = 1 s

Time = 340s

smoothSolver:  Solving for Ux, Initial residual = 1.87024e-05, Final residual = 7.63184e-06, No Iterations 2
smoothSolver:  Solving for Uy, Initial residual = 0.0115947, Final residual = 0.000803053, No Iterations 3
Pressure gradient source: uncorrected Ubar = 1, pressure gradient = 0.00442936
GAMG:  Solving for p, Initial residual = 0.00438004, Final residual = 0.000427973, No Iterations 5
time step continuity errors : sum local = 1.85603e-08, global = -1.29785e-18, cumulative = -5.9835e-17
Pressure gradient source: uncorrected Ubar = 1, pressure gradient = 0.00443048
smoothSolver:  Solving for omega, Initial residual = 7.27622e-06, Final residual = 7.27622e-06, No Iterations 0
smoothSolver:  Solving for k, Initial residual = 6.03941e-05, Final residual = 6.57992e-06, No Iterations 4
ExecutionTime = 0.717263 s  ClockTime = 1 s

Time = 341s

smoothSolver:  Solving for Ux, Initial residual = 1.90166e-05, Final residual = 7.75626e-06, No Iterations 2
smoothSolver:  Solving for Uy, Initial residual = 0.00736765, Final residual = 0.000594627, No Iterations 3
Pressure gradient source: uncorrected Ubar = 1, pressure gradient = 0.00442911
GAMG:  Solving for p, Initial residual = 0.00354392, Final residual = 0.000346828, No Iterations 7
time step continuity errors : sum local = 1.49808e-08, global = 1.46916e-17, cumulative = -4.51434e-17
Pressure gradient source: uncorrected Ubar = 1, pressure gradient = 0.0044302
smoothSolver:  Solving for omega, Initial residual = 7.26803e-06, Final residual = 7.26803e-06, No Iterations 0
smoothSolver:  Solving for k, Initial residual = 5.82277e-05, Final residual = 6.27393e-06, No Iterations 4
ExecutionTime = 0.719492 s  ClockTime = 1 s


SIMPLE solution converged in 341 iterations

End

