/*---------------------------------------------------------------------------*\
  =========                 |
  \\      /  F ield         | OpenFOAM: The Open Source CFD Toolbox
   \\    /   O peration     | Website:  https://openfoam.org
    \\  /    A nd           | Version:  10
     \\/     M anipulation  |
\*---------------------------------------------------------------------------*/
Build  : 10-e450dce21ea5
Exec   : blockMesh
Date   : Jan 16 2023
Time   : 11:44:14
Host   : "w530-R9YK46P"
PID    : 14476
I/O    : uncollated
Case   : /home/jdmezazeron/gitDanielMezaZ/turbulenceVisualized/Data/SimulationFiles/E27_Re24115
nProcs : 1
sigFpe : Enabling floating point exception trapping (FOAM_SIGFPE).
fileModificationChecking : Monitoring run-time modified files using timeStampMaster (fileModificationSkew 10)
allowSystemOperations : Allowing user-supplied system call operations

// * * * * * * * * * * * * * * * * * * * * * * * * * * * * * * * * * * * * * //
Create time

Reading "blockMeshDict"

Creating block mesh from
    "system/blockMeshDict"
Creating block edges
No non-planar block faces defined
Creating topology blocks
Creating topology patches

Creating block mesh topology

Check topology

	Basic statistics
		Number of internal faces : 0
		Number of boundary faces : 6
		Number of defined boundary faces : 6
		Number of undefined boundary faces : 0
	Checking patch -> block consistency

Creating block offsets
Creating merge list .

Creating polyMesh from blockMesh
Creating patches
Creating cells
Creating points with scale 1
    Block 0 cell size :
        i : 0.5
        j : 0.00921276 .. 0.036851
        k : 2

Detected cyclic patches; ordering boundary faces

Writing polyMesh
----------------
Mesh Information
----------------
  boundingBox: (-1 0 -1) (1 1 1)
  nPoints: 510
  nCells: 200
  nFaces: 854
  nInternalFaces: 346
----------------
Patches
----------------
  patch 0 (start: 346 size: 50) name: inlet
  patch 1 (start: 396 size: 50) name: outlet
  patch 2 (start: 446 size: 4) name: fixedWalls-bottom
  patch 3 (start: 450 size: 4) name: fixedWalls-top
  patch 4 (start: 454 size: 400) name: frontAndBack

End

/*---------------------------------------------------------------------------*\
  =========                 |
  \\      /  F ield         | OpenFOAM: The Open Source CFD Toolbox
   \\    /   O peration     | Website:  https://openfoam.org
    \\  /    A nd           | Version:  10
     \\/     M anipulation  |
\*---------------------------------------------------------------------------*/
Build  : 10-e450dce21ea5
Exec   : simpleFoam
Date   : Jan 16 2023
Time   : 11:44:14
Host   : "w530-R9YK46P"
PID    : 14477
I/O    : uncollated
Case   : /home/jdmezazeron/gitDanielMezaZ/turbulenceVisualized/Data/SimulationFiles/E27_Re24115
nProcs : 1
sigFpe : Enabling floating point exception trapping (FOAM_SIGFPE).
fileModificationChecking : Monitoring run-time modified files using timeStampMaster (fileModificationSkew 10)
allowSystemOperations : Allowing user-supplied system call operations

// * * * * * * * * * * * * * * * * * * * * * * * * * * * * * * * * * * * * * //
Create time

Create mesh for time = 0


SIMPLE: Convergence criteria found
        U: tolerance 0.01
        p: tolerance 0.01
        omega: tolerance 0.0001

Reading field p

Reading field U

Reading/calculating face flux field phi

Selecting viscosity model Newtonian
Selecting turbulence model type RAS
Selecting RAS turbulence model kOmegaSST
Selecting patchDistMethod meshWave
RAS
{
    RASModel        kOmegaSST;
    turbulence      on;
    printCoeffs     on;
    alphaK1         0.85;
    alphaK2         1;
    alphaOmega1     0.5;
    alphaOmega2     0.856;
    gamma1          0.555556;
    gamma2          0.44;
    beta1           0.075;
    beta2           0.0828;
    betaStar        0.09;
    a1              0.31;
    b1              1;
    c1              10;
    F3              false;
}

No MRF models present

--> FOAM Warning : Creating fvModels from "system/fvOptions" rather than constant/fvModels
No fvModels present
--> FOAM Warning : Creating fvConstraints from "system/fvOptions"

Selecting finite volume constraint type meanVelocityForce
    Name: momentumSource
    - selecting all cells
    - selected 200 cell(s) with volume 4
    Initial pressure gradient = 0


Starting time loop

turbulenceFields stressComponents: storing fields:
    R

Time = 1s

smoothSolver:  Solving for Ux, Initial residual = 0, Final residual = 0, No Iterations 0
smoothSolver:  Solving for Uy, Initial residual = 0, Final residual = 0, No Iterations 0
Pressure gradient source: uncorrected Ubar = 0, pressure gradient = 1.03361
GAMG:  Solving for p, Initial residual = 0.999988, Final residual = 0.0485792, No Iterations 3
time step continuity errors : sum local = 5.64972e-17, global = 5.7364e-18, cumulative = 5.7364e-18
Pressure gradient source: uncorrected Ubar = 0.869415, pressure gradient = 0.134974
smoothSolver:  Solving for omega, Initial residual = 0.727847, Final residual = 0.0547882, No Iterations 1
bounding omega, min: -13.0626 max: 312.705 average: 18.9829
smoothSolver:  Solving for k, Initial residual = 1, Final residual = 0.0595277, No Iterations 2
ExecutionTime = 0.013132 s  ClockTime = 0 s

Time = 2s

smoothSolver:  Solving for Ux, Initial residual = 0.113107, Final residual = 0.00967961, No Iterations 5
smoothSolver:  Solving for Uy, Initial residual = 1, Final residual = 0.0813533, No Iterations 2
Pressure gradient source: uncorrected Ubar = 1.11587, pressure gradient = -0.573102
GAMG:  Solving for p, Initial residual = 1, Final residual = 0.097216, No Iterations 6
time step continuity errors : sum local = 0.00609923, global = 1.73475e-18, cumulative = 7.47115e-18
Pressure gradient source: uncorrected Ubar = 1.02906, pressure gradient = -0.0425883
smoothSolver:  Solving for omega, Initial residual = 0.134769, Final residual = 0.00579351, No Iterations 2
smoothSolver:  Solving for k, Initial residual = 0.268, Final residual = 0.0229015, No Iterations 3
ExecutionTime = 0.016162 s  ClockTime = 0 s

Time = 3s

smoothSolver:  Solving for Ux, Initial residual = 0.135225, Final residual = 0.0123668, No Iterations 4
smoothSolver:  Solving for Uy, Initial residual = 0.590119, Final residual = 0.03597, No Iterations 3
Pressure gradient source: uncorrected Ubar = 0.95627, pressure gradient = 0.384134
GAMG:  Solving for p, Initial residual = 0.105762, Final residual = 0.00814217, No Iterations 4
time step continuity errors : sum local = 0.00177844, global = 1.8838e-18, cumulative = 9.35496e-18
Pressure gradient source: uncorrected Ubar = 0.993148, pressure gradient = 0.0242767
smoothSolver:  Solving for omega, Initial residual = 0.0284213, Final residual = 0.00267559, No Iterations 2
smoothSolver:  Solving for k, Initial residual = 0.230035, Final residual = 0.0170937, No Iterations 2
ExecutionTime = 0.018316 s  ClockTime = 0 s

Time = 4s

smoothSolver:  Solving for Ux, Initial residual = 0.0758079, Final residual = 0.00679595, No Iterations 4
smoothSolver:  Solving for Uy, Initial residual = 0.531863, Final residual = 0.0294805, No Iterations 3
Pressure gradient source: uncorrected Ubar = 1.00567, pressure gradient = -0.0340184
GAMG:  Solving for p, Initial residual = 0.0264898, Final residual = 0.00219788, No Iterations 14
time step continuity errors : sum local = 0.00131886, global = -1.09504e-17, cumulative = -1.59549e-18
Pressure gradient source: uncorrected Ubar = 1.00092, pressure gradient = 0.0148069
smoothSolver:  Solving for omega, Initial residual = 0.0111069, Final residual = 0.000478243, No Iterations 3
smoothSolver:  Solving for k, Initial residual = 0.119499, Final residual = 0.0085117, No Iterations 3
ExecutionTime = 0.020809 s  ClockTime = 0 s

Time = 5s

smoothSolver:  Solving for Ux, Initial residual = 0.0471034, Final residual = 0.00338164, No Iterations 5
smoothSolver:  Solving for Uy, Initial residual = 0.590846, Final residual = 0.0352903, No Iterations 3
Pressure gradient source: uncorrected Ubar = 1.00155, pressure gradient = -0.00235439
GAMG:  Solving for p, Initial residual = 0.0394905, Final residual = 0.00383688, No Iterations 6
time step continuity errors : sum local = 0.00097938, global = -6.08466e-18, cumulative = -7.68015e-18
Pressure gradient source: uncorrected Ubar = 1.00026, pressure gradient = 0.0119604
smoothSolver:  Solving for omega, Initial residual = 0.00656737, Final residual = 0.000544378, No Iterations 3
smoothSolver:  Solving for k, Initial residual = 0.0863416, Final residual = 0.0047069, No Iterations 4
ExecutionTime = 0.023017 s  ClockTime = 0 s

Time = 6s

smoothSolver:  Solving for Ux, Initial residual = 0.0353422, Final residual = 0.00278303, No Iterations 5
smoothSolver:  Solving for Uy, Initial residual = 0.426656, Final residual = 0.0291982, No Iterations 3
Pressure gradient source: uncorrected Ubar = 1.00156, pressure gradient = -0.00609249
GAMG:  Solving for p, Initial residual = 0.105845, Final residual = 0.0104647, No Iterations 18
time step continuity errors : sum local = 0.000667128, global = 1.4569e-18, cumulative = -6.22325e-18
Pressure gradient source: uncorrected Ubar = 1.00024, pressure gradient = 0.00920617
smoothSolver:  Solving for omega, Initial residual = 0.00444131, Final residual = 0.000310279, No Iterations 4
smoothSolver:  Solving for k, Initial residual = 0.0785262, Final residual = 0.00433938, No Iterations 4
ExecutionTime = 0.025497 s  ClockTime = 0 s

Time = 7s

smoothSolver:  Solving for Ux, Initial residual = 0.0272448, Final residual = 0.00230568, No Iterations 5
smoothSolver:  Solving for Uy, Initial residual = 0.452239, Final residual = 0.0274065, No Iterations 3
Pressure gradient source: uncorrected Ubar = 1.00139, pressure gradient = -0.00757074
GAMG:  Solving for p, Initial residual = 0.0642015, Final residual = 0.00638205, No Iterations 16
time step continuity errors : sum local = 0.000538957, global = -5.29228e-18, cumulative = -1.15155e-17
Pressure gradient source: uncorrected Ubar = 1.00021, pressure gradient = 0.00668225
smoothSolver:  Solving for omega, Initial residual = 0.00320152, Final residual = 0.000200135, No Iterations 5
smoothSolver:  Solving for k, Initial residual = 0.0637301, Final residual = 0.00448538, No Iterations 4
ExecutionTime = 0.02789 s  ClockTime = 0 s

Time = 8s

smoothSolver:  Solving for Ux, Initial residual = 0.0214616, Final residual = 0.00194989, No Iterations 5
smoothSolver:  Solving for Uy, Initial residual = 0.425108, Final residual = 0.0261885, No Iterations 3
Pressure gradient source: uncorrected Ubar = 1.00108, pressure gradient = -0.0071655
GAMG:  Solving for p, Initial residual = 0.0310449, Final residual = 0.00282233, No Iterations 8
time step continuity errors : sum local = 0.000353397, global = 1.08691e-17, cumulative = -6.46387e-19
Pressure gradient source: uncorrected Ubar = 1.00016, pressure gradient = 0.00463252
smoothSolver:  Solving for omega, Initial residual = 0.00242158, Final residual = 0.0001788, No Iterations 4
smoothSolver:  Solving for k, Initial residual = 0.0635617, Final residual = 0.00426118, No Iterations 5
ExecutionTime = 0.030257 s  ClockTime = 0 s

Time = 9s

smoothSolver:  Solving for Ux, Initial residual = 0.0174731, Final residual = 0.00170129, No Iterations 5
smoothSolver:  Solving for Uy, Initial residual = 0.403074, Final residual = 0.0270744, No Iterations 3
Pressure gradient source: uncorrected Ubar = 1.00057, pressure gradient = -0.00300244
GAMG:  Solving for p, Initial residual = 0.0202417, Final residual = 0.00136945, No Iterations 4
time step continuity errors : sum local = 0.000175596, global = 4.61634e-18, cumulative = 3.96996e-18
Pressure gradient source: uncorrected Ubar = 1.00008, pressure gradient = 0.00352561
smoothSolver:  Solving for omega, Initial residual = 0.00215153, Final residual = 0.00021387, No Iterations 4
smoothSolver:  Solving for k, Initial residual = 0.0536135, Final residual = 0.00502704, No Iterations 4
ExecutionTime = 0.033204 s  ClockTime = 0 s

Time = 10s

smoothSolver:  Solving for Ux, Initial residual = 0.0148511, Final residual = 0.00101934, No Iterations 6
smoothSolver:  Solving for Uy, Initial residual = 0.449204, Final residual = 0.0286498, No Iterations 3
Pressure gradient source: uncorrected Ubar = 1.00045, pressure gradient = -0.00267383
GAMG:  Solving for p, Initial residual = 0.0158932, Final residual = 0.00146825, No Iterations 13
time step continuity errors : sum local = 0.000216363, global = -1.12359e-17, cumulative = -7.26594e-18
Pressure gradient source: uncorrected Ubar = 1.00006, pressure gradient = 0.00263948
smoothSolver:  Solving for omega, Initial residual = 0.00191467, Final residual = 0.000157016, No Iterations 4
smoothSolver:  Solving for k, Initial residual = 0.0495118, Final residual = 0.00467265, No Iterations 4
ExecutionTime = 0.037184 s  ClockTime = 0 s

Time = 11s

smoothSolver:  Solving for Ux, Initial residual = 0.0128906, Final residual = 0.000941319, No Iterations 6
smoothSolver:  Solving for Uy, Initial residual = 0.546327, Final residual = 0.0379332, No Iterations 3
Pressure gradient source: uncorrected Ubar = 1.00032, pressure gradient = -0.00192926
GAMG:  Solving for p, Initial residual = 0.0161501, Final residual = 0.00146696, No Iterations 16
time step continuity errors : sum local = 0.000206661, global = -4.97717e-18, cumulative = -1.22431e-17
Pressure gradient source: uncorrected Ubar = 1.00005, pressure gradient = 0.00198564
smoothSolver:  Solving for omega, Initial residual = 0.00164873, Final residual = 0.000110048, No Iterations 5
smoothSolver:  Solving for k, Initial residual = 0.0499784, Final residual = 0.00373689, No Iterations 5
ExecutionTime = 0.039811 s  ClockTime = 0 s

Time = 12s

smoothSolver:  Solving for Ux, Initial residual = 0.0113862, Final residual = 0.000878287, No Iterations 6
smoothSolver:  Solving for Uy, Initial residual = 0.620011, Final residual = 0.0435983, No Iterations 3
Pressure gradient source: uncorrected Ubar = 1.00022, pressure gradient = -0.0012524
GAMG:  Solving for p, Initial residual = 0.0196498, Final residual = 0.00190043, No Iterations 16
time step continuity errors : sum local = 0.000160124, global = -5.5216e-18, cumulative = -1.77647e-17
Pressure gradient source: uncorrected Ubar = 1.00003, pressure gradient = 0.00152279
smoothSolver:  Solving for omega, Initial residual = 0.00144459, Final residual = 9.77726e-05, No Iterations 5
smoothSolver:  Solving for k, Initial residual = 0.0448044, Final residual = 0.0037298, No Iterations 5
ExecutionTime = 0.042257 s  ClockTime = 0 s

Time = 13s

smoothSolver:  Solving for Ux, Initial residual = 0.0103621, Final residual = 0.00083703, No Iterations 6
smoothSolver:  Solving for Uy, Initial residual = 0.5211, Final residual = 0.0413012, No Iterations 3
Pressure gradient source: uncorrected Ubar = 1.00016, pressure gradient = -0.000992501
GAMG:  Solving for p, Initial residual = 0.0273778, Final residual = 0.00259431, No Iterations 16
time step continuity errors : sum local = 0.0001384, global = 1.93621e-18, cumulative = -1.58285e-17
Pressure gradient source: uncorrected Ubar = 1.00002, pressure gradient = 0.00116008
smoothSolver:  Solving for omega, Initial residual = 0.00126857, Final residual = 9.53787e-05, No Iterations 5
smoothSolver:  Solving for k, Initial residual = 0.0376804, Final residual = 0.00248384, No Iterations 5
ExecutionTime = 0.046961 s  ClockTime = 0 s

Time = 14s

smoothSolver:  Solving for Ux, Initial residual = 0.00950402, Final residual = 0.000797966, No Iterations 6
smoothSolver:  Solving for Uy, Initial residual = 0.38719, Final residual = 0.0332966, No Iterations 3
Pressure gradient source: uncorrected Ubar = 1.00009, pressure gradient = -0.000232919
GAMG:  Solving for p, Initial residual = 0.0480522, Final residual = 0.00467851, No Iterations 15
time step continuity errors : sum local = 9.69777e-05, global = 1.13104e-17, cumulative = -4.51808e-18
Pressure gradient source: uncorrected Ubar = 1.00001, pressure gradient = 0.000965207
smoothSolver:  Solving for omega, Initial residual = 0.0010498, Final residual = 8.37779e-05, No Iterations 5
smoothSolver:  Solving for k, Initial residual = 0.0354909, Final residual = 0.00202624, No Iterations 5
ExecutionTime = 0.051643 s  ClockTime = 0 s

Time = 15s

smoothSolver:  Solving for Ux, Initial residual = 0.00878941, Final residual = 0.000758974, No Iterations 6
smoothSolver:  Solving for Uy, Initial residual = 0.320894, Final residual = 0.0216068, No Iterations 3
Pressure gradient source: uncorrected Ubar = 1.00008, pressure gradient = -0.000308651
GAMG:  Solving for p, Initial residual = 0.0553443, Final residual = 0.0051899, No Iterations 15
time step continuity errors : sum local = 7.47429e-05, global = 7.18787e-18, cumulative = 2.66979e-18
Pressure gradient source: uncorrected Ubar = 1.00001, pressure gradient = 0.000779746
smoothSolver:  Solving for omega, Initial residual = 0.000953111, Final residual = 6.66824e-05, No Iterations 5
smoothSolver:  Solving for k, Initial residual = 0.031674, Final residual = 0.00236787, No Iterations 5
ExecutionTime = 0.056243 s  ClockTime = 0 s

Time = 16s

smoothSolver:  Solving for Ux, Initial residual = 0.00855885, Final residual = 0.000737846, No Iterations 6
smoothSolver:  Solving for Uy, Initial residual = 0.304528, Final residual = 0.0247917, No Iterations 3
Pressure gradient source: uncorrected Ubar = 1.00003, pressure gradient = 0.000313012
GAMG:  Solving for p, Initial residual = 0.0255832, Final residual = 0.00247135, No Iterations 13
time step continuity errors : sum local = 5.89948e-05, global = -3.04773e-18, cumulative = -3.77944e-19
Pressure gradient source: uncorrected Ubar = 1, pressure gradient = 0.000716895
smoothSolver:  Solving for omega, Initial residual = 0.00082438, Final residual = 7.26876e-05, No Iterations 4
smoothSolver:  Solving for k, Initial residual = 0.0272085, Final residual = 0.00193915, No Iterations 5
ExecutionTime = 0.060608 s  ClockTime = 0 s

Time = 17s

smoothSolver:  Solving for Ux, Initial residual = 0.00844763, Final residual = 0.000715943, No Iterations 6
smoothSolver:  Solving for Uy, Initial residual = 0.316707, Final residual = 0.029328, No Iterations 3
Pressure gradient source: uncorrected Ubar = 1.00001, pressure gradient = 0.000468025
GAMG:  Solving for p, Initial residual = 0.0211496, Final residual = 0.00157256, No Iterations 15
time step continuity errors : sum local = 4.37719e-05, global = 8.04088e-18, cumulative = 7.66294e-18
Pressure gradient source: uncorrected Ubar = 1, pressure gradient = 0.000685093
smoothSolver:  Solving for omega, Initial residual = 0.000827069, Final residual = 7.10526e-05, No Iterations 4
smoothSolver:  Solving for k, Initial residual = 0.0241947, Final residual = 0.0018877, No Iterations 5
ExecutionTime = 0.063087 s  ClockTime = 0 s

Time = 18s

smoothSolver:  Solving for Ux, Initial residual = 0.00833564, Final residual = 0.000696542, No Iterations 6
smoothSolver:  Solving for Uy, Initial residual = 0.375848, Final residual = 0.0310041, No Iterations 3
Pressure gradient source: uncorrected Ubar = 1, pressure gradient = 0.000682409
GAMG:  Solving for p, Initial residual = 0.0199393, Final residual = 0.00171854, No Iterations 17
time step continuity errors : sum local = 3.68567e-05, global = -1.80714e-18, cumulative = 5.8558e-18
Pressure gradient source: uncorrected Ubar = 1, pressure gradient = 0.000689893
smoothSolver:  Solving for omega, Initial residual = 0.000758766, Final residual = 6.96263e-05, No Iterations 4
smoothSolver:  Solving for k, Initial residual = 0.0204383, Final residual = 0.00132967, No Iterations 5
ExecutionTime = 0.065638 s  ClockTime = 0 s

Time = 19s

smoothSolver:  Solving for Ux, Initial residual = 0.00824605, Final residual = 0.000680902, No Iterations 6
smoothSolver:  Solving for Uy, Initial residual = 0.434186, Final residual = 0.036348, No Iterations 3
Pressure gradient source: uncorrected Ubar = 0.999987, pressure gradient = 0.000922207
GAMG:  Solving for p, Initial residual = 0.0222351, Final residual = 0.00203842, No Iterations 15
time step continuity errors : sum local = 4.08227e-05, global = -1.72017e-18, cumulative = 4.13563e-18
Pressure gradient source: uncorrected Ubar = 0.999998, pressure gradient = 0.00073047
smoothSolver:  Solving for omega, Initial residual = 0.000776598, Final residual = 6.51942e-05, No Iterations 4
smoothSolver:  Solving for k, Initial residual = 0.0199793, Final residual = 0.00159926, No Iterations 5
ExecutionTime = 0.068038 s  ClockTime = 0 s

Time = 20s

smoothSolver:  Solving for Ux, Initial residual = 0.00817157, Final residual = 0.000667149, No Iterations 6
smoothSolver:  Solving for Uy, Initial residual = 0.41278, Final residual = 0.0382767, No Iterations 3
Pressure gradient source: uncorrected Ubar = 0.999976, pressure gradient = 0.00117909
GAMG:  Solving for p, Initial residual = 0.0248764, Final residual = 0.00235659, No Iterations 17
time step continuity errors : sum local = 3.71175e-05, global = -5.72764e-18, cumulative = -1.59201e-18
Pressure gradient source: uncorrected Ubar = 0.999996, pressure gradient = 0.000803892
smoothSolver:  Solving for omega, Initial residual = 0.000746945, Final residual = 4.98165e-05, No Iterations 5
smoothSolver:  Solving for k, Initial residual = 0.0181647, Final residual = 0.00157297, No Iterations 5
ExecutionTime = 0.070452 s  ClockTime = 0 s

Time = 21s

smoothSolver:  Solving for Ux, Initial residual = 0.00805216, Final residual = 0.000651182, No Iterations 6
smoothSolver:  Solving for Uy, Initial residual = 0.395279, Final residual = 0.0349745, No Iterations 3
Pressure gradient source: uncorrected Ubar = 0.999982, pressure gradient = 0.00114492
GAMG:  Solving for p, Initial residual = 0.026618, Final residual = 0.00260399, No Iterations 15
time step continuity errors : sum local = 3.29756e-05, global = 1.34636e-18, cumulative = -2.45648e-19
Pressure gradient source: uncorrected Ubar = 0.999997, pressure gradient = 0.000856605
smoothSolver:  Solving for omega, Initial residual = 0.000731937, Final residual = 4.81214e-05, No Iterations 5
smoothSolver:  Solving for k, Initial residual = 0.0156431, Final residual = 0.00115778, No Iterations 5
ExecutionTime = 0.072713 s  ClockTime = 0 s

Time = 22s

smoothSolver:  Solving for Ux, Initial residual = 0.00794862, Final residual = 0.000636798, No Iterations 6
smoothSolver:  Solving for Uy, Initial residual = 0.403908, Final residual = 0.0315258, No Iterations 3
Pressure gradient source: uncorrected Ubar = 0.999978, pressure gradient = 0.00128833
GAMG:  Solving for p, Initial residual = 0.0284273, Final residual = 0.00264615, No Iterations 18
time step continuity errors : sum local = 2.65317e-05, global = -6.70869e-18, cumulative = -6.95433e-18
Pressure gradient source: uncorrected Ubar = 0.999997, pressure gradient = 0.000921074
smoothSolver:  Solving for omega, Initial residual = 0.000692667, Final residual = 6.81102e-05, No Iterations 4
smoothSolver:  Solving for k, Initial residual = 0.0150911, Final residual = 0.00104013, No Iterations 5
ExecutionTime = 0.075257 s  ClockTime = 0 s

Time = 23s

smoothSolver:  Solving for Ux, Initial residual = 0.00784837, Final residual = 0.00062206, No Iterations 6
smoothSolver:  Solving for Uy, Initial residual = 0.431529, Final residual = 0.0418754, No Iterations 3
Pressure gradient source: uncorrected Ubar = 0.999979, pressure gradient = 0.00133758
GAMG:  Solving for p, Initial residual = 0.023577, Final residual = 0.00206721, No Iterations 16
time step continuity errors : sum local = 1.91585e-05, global = -6.26169e-18, cumulative = -1.3216e-17
Pressure gradient source: uncorrected Ubar = 0.999997, pressure gradient = 0.000980469
smoothSolver:  Solving for omega, Initial residual = 0.000689147, Final residual = 6.21755e-05, No Iterations 4
smoothSolver:  Solving for k, Initial residual = 0.0146362, Final residual = 0.00120705, No Iterations 5
ExecutionTime = 0.079578 s  ClockTime = 0 s

Time = 24s

smoothSolver:  Solving for Ux, Initial residual = 0.00774743, Final residual = 0.000608832, No Iterations 6
smoothSolver:  Solving for Uy, Initial residual = 0.461194, Final residual = 0.0234133, No Iterations 4
Pressure gradient source: uncorrected Ubar = 0.999973, pressure gradient = 0.00153065
GAMG:  Solving for p, Initial residual = 0.0203758, Final residual = 0.00180718, No Iterations 15
time step continuity errors : sum local = 1.78461e-05, global = -8.27578e-20, cumulative = -1.32988e-17
Pressure gradient source: uncorrected Ubar = 0.999996, pressure gradient = 0.00105905
smoothSolver:  Solving for omega, Initial residual = 0.000683517, Final residual = 4.18487e-05, No Iterations 5
smoothSolver:  Solving for k, Initial residual = 0.0136875, Final residual = 0.00103026, No Iterations 5
ExecutionTime = 0.084161 s  ClockTime = 0 s

Time = 25s

smoothSolver:  Solving for Ux, Initial residual = 0.00764846, Final residual = 0.000597254, No Iterations 6
smoothSolver:  Solving for Uy, Initial residual = 0.428698, Final residual = 0.0374421, No Iterations 3
Pressure gradient source: uncorrected Ubar = 0.999971, pressure gradient = 0.00167881
GAMG:  Solving for p, Initial residual = 0.0170971, Final residual = 0.00154086, No Iterations 9
time step continuity errors : sum local = 1.38188e-05, global = 8.49023e-18, cumulative = -4.80855e-18
Pressure gradient source: uncorrected Ubar = 0.999996, pressure gradient = 0.00114614
smoothSolver:  Solving for omega, Initial residual = 0.000660169, Final residual = 6.15413e-05, No Iterations 4
smoothSolver:  Solving for k, Initial residual = 0.0124898, Final residual = 0.00093323, No Iterations 5
ExecutionTime = 0.08799 s  ClockTime = 0 s

Time = 26s

smoothSolver:  Solving for Ux, Initial residual = 0.00755772, Final residual = 0.000585749, No Iterations 6
smoothSolver:  Solving for Uy, Initial residual = 0.29997, Final residual = 0.0280748, No Iterations 3
Pressure gradient source: uncorrected Ubar = 0.999973, pressure gradient = 0.00171906
GAMG:  Solving for p, Initial residual = 0.0147233, Final residual = 0.00120211, No Iterations 3
time step continuity errors : sum local = 9.06564e-06, global = -6.11285e-18, cumulative = -1.09214e-17
Pressure gradient source: uncorrected Ubar = 0.999996, pressure gradient = 0.00122273
smoothSolver:  Solving for omega, Initial residual = 0.000685533, Final residual = 5.02899e-05, No Iterations 5
smoothSolver:  Solving for k, Initial residual = 0.011847, Final residual = 0.000811903, No Iterations 5
ExecutionTime = 0.090059 s  ClockTime = 0 s

Time = 27s

smoothSolver:  Solving for Ux, Initial residual = 0.00745109, Final residual = 0.000572745, No Iterations 6
smoothSolver:  Solving for Uy, Initial residual = 0.20649, Final residual = 0.0205575, No Iterations 3
Pressure gradient source: uncorrected Ubar = 0.99998, pressure gradient = 0.00167201
GAMG:  Solving for p, Initial residual = 0.0136636, Final residual = 0.000725709, No Iterations 3
time step continuity errors : sum local = 5.15223e-06, global = 3.46838e-18, cumulative = -7.45302e-18
Pressure gradient source: uncorrected Ubar = 0.999998, pressure gradient = 0.00127542
smoothSolver:  Solving for omega, Initial residual = 0.000655291, Final residual = 6.35752e-05, No Iterations 4
smoothSolver:  Solving for k, Initial residual = 0.0117311, Final residual = 0.00104125, No Iterations 5
ExecutionTime = 0.092038 s  ClockTime = 0 s

Time = 28s

smoothSolver:  Solving for Ux, Initial residual = 0.00735492, Final residual = 0.000561042, No Iterations 6
smoothSolver:  Solving for Uy, Initial residual = 0.169905, Final residual = 0.0156787, No Iterations 3
Pressure gradient source: uncorrected Ubar = 0.999976, pressure gradient = 0.00182428
GAMG:  Solving for p, Initial residual = 0.0132171, Final residual = 0.00110896, No Iterations 11
time step continuity errors : sum local = 8.25052e-06, global = 2.39721e-18, cumulative = -5.05581e-18
Pressure gradient source: uncorrected Ubar = 0.999997, pressure gradient = 0.00134188
smoothSolver:  Solving for omega, Initial residual = 0.000637984, Final residual = 5.87635e-05, No Iterations 4
smoothSolver:  Solving for k, Initial residual = 0.0108614, Final residual = 0.000856666, No Iterations 5
ExecutionTime = 0.096221 s  ClockTime = 0 s

Time = 29s

smoothSolver:  Solving for Ux, Initial residual = 0.00726046, Final residual = 0.000549966, No Iterations 6
smoothSolver:  Solving for Uy, Initial residual = 0.164345, Final residual = 0.0104692, No Iterations 4
Pressure gradient source: uncorrected Ubar = 0.999978, pressure gradient = 0.00185193
GAMG:  Solving for p, Initial residual = 0.0155522, Final residual = 0.00144955, No Iterations 19
time step continuity errors : sum local = 8.65874e-06, global = 2.85338e-18, cumulative = -2.20243e-18
Pressure gradient source: uncorrected Ubar = 0.999997, pressure gradient = 0.00139925
smoothSolver:  Solving for omega, Initial residual = 0.000646465, Final residual = 4.16975e-05, No Iterations 5
smoothSolver:  Solving for k, Initial residual = 0.0101954, Final residual = 0.00087366, No Iterations 5
ExecutionTime = 0.101042 s  ClockTime = 0 s

Time = 30s

smoothSolver:  Solving for Ux, Initial residual = 0.00716342, Final residual = 0.000538768, No Iterations 6
smoothSolver:  Solving for Uy, Initial residual = 0.172987, Final residual = 0.0111604, No Iterations 4
Pressure gradient source: uncorrected Ubar = 0.999979, pressure gradient = 0.001883
GAMG:  Solving for p, Initial residual = 0.019238, Final residual = 0.00177787, No Iterations 17
time step continuity errors : sum local = 8.2985e-06, global = 4.21229e-18, cumulative = 2.00986e-18
Pressure gradient source: uncorrected Ubar = 0.999998, pressure gradient = 0.00144932
smoothSolver:  Solving for omega, Initial residual = 0.000634736, Final residual = 4.71596e-05, No Iterations 5
smoothSolver:  Solving for k, Initial residual = 0.00937906, Final residual = 0.000711006, No Iterations 5
ExecutionTime = 0.104683 s  ClockTime = 0 s

Time = 31s

smoothSolver:  Solving for Ux, Initial residual = 0.00708612, Final residual = 0.000530143, No Iterations 6
smoothSolver:  Solving for Uy, Initial residual = 0.180869, Final residual = 0.0102457, No Iterations 4
Pressure gradient source: uncorrected Ubar = 0.999973, pressure gradient = 0.0020877
GAMG:  Solving for p, Initial residual = 0.0274198, Final residual = 0.00197566, No Iterations 20
time step continuity errors : sum local = 6.01236e-06, global = -4.21791e-18, cumulative = -2.20804e-18
Pressure gradient source: uncorrected Ubar = 0.999997, pressure gradient = 0.0015234
smoothSolver:  Solving for omega, Initial residual = 0.00061635, Final residual = 4.27347e-05, No Iterations 5
smoothSolver:  Solving for k, Initial residual = 0.00883361, Final residual = 0.0007328, No Iterations 5
ExecutionTime = 0.107273 s  ClockTime = 0 s

Time = 32s

smoothSolver:  Solving for Ux, Initial residual = 0.00699606, Final residual = 0.0005202, No Iterations 6
smoothSolver:  Solving for Uy, Initial residual = 0.163823, Final residual = 0.0153322, No Iterations 3
Pressure gradient source: uncorrected Ubar = 0.999982, pressure gradient = 0.00195579
GAMG:  Solving for p, Initial residual = 0.0619765, Final residual = 0.0057815, No Iterations 16
time step continuity errors : sum local = 6.64772e-06, global = -7.66353e-19, cumulative = -2.9744e-18
Pressure gradient source: uncorrected Ubar = 0.999998, pressure gradient = 0.00155972
smoothSolver:  Solving for omega, Initial residual = 0.000596495, Final residual = 5.50121e-05, No Iterations 4
smoothSolver:  Solving for k, Initial residual = 0.00803116, Final residual = 0.000627384, No Iterations 5
ExecutionTime = 0.10993 s  ClockTime = 0 s

Time = 33s

smoothSolver:  Solving for Ux, Initial residual = 0.0069241, Final residual = 0.000511789, No Iterations 6
smoothSolver:  Solving for Uy, Initial residual = 0.155683, Final residual = 0.0149693, No Iterations 3
Pressure gradient source: uncorrected Ubar = 0.999979, pressure gradient = 0.00207913
GAMG:  Solving for p, Initial residual = 0.0353015, Final residual = 0.00276142, No Iterations 14
time step continuity errors : sum local = 4.83437e-06, global = 4.98956e-19, cumulative = -2.47544e-18
Pressure gradient source: uncorrected Ubar = 0.999998, pressure gradient = 0.00160862
smoothSolver:  Solving for omega, Initial residual = 0.000589977, Final residual = 5.88585e-05, No Iterations 4
smoothSolver:  Solving for k, Initial residual = 0.00722522, Final residual = 0.000479801, No Iterations 5
ExecutionTime = 0.112329 s  ClockTime = 0 s

Time = 34s

smoothSolver:  Solving for Ux, Initial residual = 0.00686423, Final residual = 0.000505101, No Iterations 6
smoothSolver:  Solving for Uy, Initial residual = 0.146832, Final residual = 0.00796704, No Iterations 4
Pressure gradient source: uncorrected Ubar = 0.999975, pressure gradient = 0.00222728
GAMG:  Solving for p, Initial residual = 0.0230971, Final residual = 0.0020812, No Iterations 11
time step continuity errors : sum local = 4.61736e-06, global = -7.32519e-18, cumulative = -9.80063e-18
Pressure gradient source: uncorrected Ubar = 0.999997, pressure gradient = 0.00167283
smoothSolver:  Solving for omega, Initial residual = 0.000583698, Final residual = 3.90045e-05, No Iterations 5
smoothSolver:  Solving for k, Initial residual = 0.00722782, Final residual = 0.000627869, No Iterations 5
ExecutionTime = 0.114611 s  ClockTime = 0 s

Time = 35s

smoothSolver:  Solving for Ux, Initial residual = 0.00678888, Final residual = 0.00049679, No Iterations 6
smoothSolver:  Solving for Uy, Initial residual = 0.142878, Final residual = 0.0118965, No Iterations 3
Pressure gradient source: uncorrected Ubar = 0.999984, pressure gradient = 0.00207357
GAMG:  Solving for p, Initial residual = 0.01844, Final residual = 0.00171666, No Iterations 3
time step continuity errors : sum local = 4.00701e-06, global = 7.18842e-18, cumulative = -2.61221e-18
Pressure gradient source: uncorrected Ubar = 0.999999, pressure gradient = 0.00169771
smoothSolver:  Solving for omega, Initial residual = 0.000574867, Final residual = 3.99412e-05, No Iterations 5
smoothSolver:  Solving for k, Initial residual = 0.00645912, Final residual = 0.000447999, No Iterations 5
ExecutionTime = 0.11657 s  ClockTime = 0 s

Time = 36s

smoothSolver:  Solving for Ux, Initial residual = 0.00673145, Final residual = 0.000490298, No Iterations 6
smoothSolver:  Solving for Uy, Initial residual = 0.147894, Final residual = 0.0136823, No Iterations 3
Pressure gradient source: uncorrected Ubar = 0.999978, pressure gradient = 0.00226289
GAMG:  Solving for p, Initial residual = 0.0154031, Final residual = 0.00136324, No Iterations 3
time step continuity errors : sum local = 3.0209e-06, global = 6.68689e-18, cumulative = 4.07469e-18
Pressure gradient source: uncorrected Ubar = 0.999998, pressure gradient = 0.00174925
smoothSolver:  Solving for omega, Initial residual = 0.000547696, Final residual = 5.09387e-05, No Iterations 4
smoothSolver:  Solving for k, Initial residual = 0.00625168, Final residual = 0.000493626, No Iterations 5
ExecutionTime = 0.118546 s  ClockTime = 0 s

Time = 37s

smoothSolver:  Solving for Ux, Initial residual = 0.0066799, Final residual = 0.000484746, No Iterations 6
smoothSolver:  Solving for Uy, Initial residual = 0.156475, Final residual = 0.00971121, No Iterations 4
Pressure gradient source: uncorrected Ubar = 0.999978, pressure gradient = 0.00233081
GAMG:  Solving for p, Initial residual = 0.0145547, Final residual = 0.00123473, No Iterations 2
time step continuity errors : sum local = 2.62213e-06, global = -2.03235e-19, cumulative = 3.87145e-18
Pressure gradient source: uncorrected Ubar = 0.999998, pressure gradient = 0.00180204
smoothSolver:  Solving for omega, Initial residual = 0.000556266, Final residual = 3.70821e-05, No Iterations 5
smoothSolver:  Solving for k, Initial residual = 0.00581642, Final residual = 0.000475352, No Iterations 5
ExecutionTime = 0.12056 s  ClockTime = 0 s

Time = 38s

smoothSolver:  Solving for Ux, Initial residual = 0.00662187, Final residual = 0.00047842, No Iterations 6
smoothSolver:  Solving for Uy, Initial residual = 0.111381, Final residual = 0.00726206, No Iterations 4
Pressure gradient source: uncorrected Ubar = 0.999983, pressure gradient = 0.00224841
GAMG:  Solving for p, Initial residual = 0.0142443, Final residual = 0.00140552, No Iterations 2
time step continuity errors : sum local = 2.44408e-06, global = -3.08062e-18, cumulative = 7.90831e-19
Pressure gradient source: uncorrected Ubar = 0.999999, pressure gradient = 0.00182977
smoothSolver:  Solving for omega, Initial residual = 0.00054655, Final residual = 3.99334e-05, No Iterations 5
smoothSolver:  Solving for k, Initial residual = 0.00563832, Final residual = 0.000419359, No Iterations 5
ExecutionTime = 0.122518 s  ClockTime = 0 s

Time = 39s

smoothSolver:  Solving for Ux, Initial residual = 0.00657132, Final residual = 0.000472969, No Iterations 6
smoothSolver:  Solving for Uy, Initial residual = 0.0957444, Final residual = 0.0094255, No Iterations 3
Pressure gradient source: uncorrected Ubar = 0.99998, pressure gradient = 0.0023579
GAMG:  Solving for p, Initial residual = 0.0172562, Final residual = 0.00131271, No Iterations 3
time step continuity errors : sum local = 1.89123e-06, global = -5.57342e-18, cumulative = -4.78259e-18
Pressure gradient source: uncorrected Ubar = 0.999998, pressure gradient = 0.00187024
smoothSolver:  Solving for omega, Initial residual = 0.000519817, Final residual = 3.55104e-05, No Iterations 5
smoothSolver:  Solving for k, Initial residual = 0.00560511, Final residual = 0.00050169, No Iterations 5
ExecutionTime = 0.124523 s  ClockTime = 0 s

Time = 40s

smoothSolver:  Solving for Ux, Initial residual = 0.00652572, Final residual = 0.000468158, No Iterations 6
smoothSolver:  Solving for Uy, Initial residual = 0.0709759, Final residual = 0.00527252, No Iterations 3
Pressure gradient source: uncorrected Ubar = 0.99998, pressure gradient = 0.00240086
GAMG:  Solving for p, Initial residual = 0.0181713, Final residual = 0.00157255, No Iterations 3
time step continuity errors : sum local = 1.92313e-06, global = 2.89685e-18, cumulative = -1.88574e-18
Pressure gradient source: uncorrected Ubar = 0.999999, pressure gradient = 0.00190976
smoothSolver:  Solving for omega, Initial residual = 0.000516962, Final residual = 3.79279e-05, No Iterations 5
smoothSolver:  Solving for k, Initial residual = 0.00563586, Final residual = 0.000438941, No Iterations 5
ExecutionTime = 0.126693 s  ClockTime = 0 s

Time = 41s

smoothSolver:  Solving for Ux, Initial residual = 0.00647746, Final residual = 0.000463171, No Iterations 6
smoothSolver:  Solving for Uy, Initial residual = 0.0634315, Final residual = 0.00396278, No Iterations 3
Pressure gradient source: uncorrected Ubar = 0.999984, pressure gradient = 0.00235997
GAMG:  Solving for p, Initial residual = 0.0184819, Final residual = 0.00181802, No Iterations 5
time step continuity errors : sum local = 1.89226e-06, global = -1.00203e-17, cumulative = -1.1906e-17
Pressure gradient source: uncorrected Ubar = 0.999999, pressure gradient = 0.0019341
smoothSolver:  Solving for omega, Initial residual = 0.000499606, Final residual = 3.0968e-05, No Iterations 5
smoothSolver:  Solving for k, Initial residual = 0.00536844, Final residual = 0.000348972, No Iterations 5
ExecutionTime = 0.128809 s  ClockTime = 0 s

Time = 42s

smoothSolver:  Solving for Ux, Initial residual = 0.00643914, Final residual = 0.000458981, No Iterations 6
smoothSolver:  Solving for Uy, Initial residual = 0.0575441, Final residual = 0.00380099, No Iterations 3
Pressure gradient source: uncorrected Ubar = 0.999982, pressure gradient = 0.00243268
GAMG:  Solving for p, Initial residual = 0.016559, Final residual = 0.00157177, No Iterations 10
time step continuity errors : sum local = 1.57571e-06, global = 7.74276e-18, cumulative = -4.16324e-18
Pressure gradient source: uncorrected Ubar = 0.999999, pressure gradient = 0.0019658
smoothSolver:  Solving for omega, Initial residual = 0.000485755, Final residual = 4.75772e-05, No Iterations 4
smoothSolver:  Solving for k, Initial residual = 0.00549972, Final residual = 0.00043518, No Iterations 5
ExecutionTime = 0.131009 s  ClockTime = 0 s

Time = 43s

smoothSolver:  Solving for Ux, Initial residual = 0.00640276, Final residual = 0.0004551, No Iterations 6
smoothSolver:  Solving for Uy, Initial residual = 0.0609754, Final residual = 0.00411661, No Iterations 3
Pressure gradient source: uncorrected Ubar = 0.999982, pressure gradient = 0.00247092
GAMG:  Solving for p, Initial residual = 0.0214334, Final residual = 0.0021227, No Iterations 8
time step continuity errors : sum local = 1.92797e-06, global = -1.54128e-18, cumulative = -5.70452e-18
Pressure gradient source: uncorrected Ubar = 0.999999, pressure gradient = 0.00199773
smoothSolver:  Solving for omega, Initial residual = 0.000485719, Final residual = 3.14384e-05, No Iterations 5
smoothSolver:  Solving for k, Initial residual = 0.00566417, Final residual = 0.00051269, No Iterations 5
ExecutionTime = 0.133112 s  ClockTime = 0 s

Time = 44s

smoothSolver:  Solving for Ux, Initial residual = 0.00636612, Final residual = 0.000451278, No Iterations 6
smoothSolver:  Solving for Uy, Initial residual = 0.0533812, Final residual = 0.00382889, No Iterations 3
Pressure gradient source: uncorrected Ubar = 0.999983, pressure gradient = 0.00247608
GAMG:  Solving for p, Initial residual = 0.0198856, Final residual = 0.00177865, No Iterations 16
time step continuity errors : sum local = 1.29449e-06, global = -4.81078e-18, cumulative = -1.05153e-17
Pressure gradient source: uncorrected Ubar = 0.999999, pressure gradient = 0.00202398
smoothSolver:  Solving for omega, Initial residual = 0.000478213, Final residual = 2.95232e-05, No Iterations 5
smoothSolver:  Solving for k, Initial residual = 0.00561079, Final residual = 0.000462569, No Iterations 5
ExecutionTime = 0.135525 s  ClockTime = 0 s

Time = 45s

smoothSolver:  Solving for Ux, Initial residual = 0.00633204, Final residual = 0.000447585, No Iterations 6
smoothSolver:  Solving for Uy, Initial residual = 0.0426325, Final residual = 0.00243185, No Iterations 3
Pressure gradient source: uncorrected Ubar = 0.999984, pressure gradient = 0.00247186
GAMG:  Solving for p, Initial residual = 0.0239462, Final residual = 0.00227048, No Iterations 13
time step continuity errors : sum local = 1.28076e-06, global = -4.24649e-18, cumulative = -1.47618e-17
Pressure gradient source: uncorrected Ubar = 0.999999, pressure gradient = 0.00204399
smoothSolver:  Solving for omega, Initial residual = 0.000458854, Final residual = 4.58118e-05, No Iterations 4
smoothSolver:  Solving for k, Initial residual = 0.0057483, Final residual = 0.000499772, No Iterations 5
ExecutionTime = 0.137788 s  ClockTime = 0 s

Time = 46s

smoothSolver:  Solving for Ux, Initial residual = 0.00630771, Final residual = 0.000445046, No Iterations 6
smoothSolver:  Solving for Uy, Initial residual = 0.0398633, Final residual = 0.00236728, No Iterations 3
Pressure gradient source: uncorrected Ubar = 0.999981, pressure gradient = 0.00259569
GAMG:  Solving for p, Initial residual = 0.0224137, Final residual = 0.00219887, No Iterations 13
time step continuity errors : sum local = 1.16241e-06, global = -9.33098e-19, cumulative = -1.56949e-17
Pressure gradient source: uncorrected Ubar = 0.999999, pressure gradient = 0.0020815
smoothSolver:  Solving for omega, Initial residual = 0.000456953, Final residual = 2.9326e-05, No Iterations 5
smoothSolver:  Solving for k, Initial residual = 0.00593529, Final residual = 0.000535225, No Iterations 5
ExecutionTime = 0.140062 s  ClockTime = 0 s

Time = 47s

smoothSolver:  Solving for Ux, Initial residual = 0.00627634, Final residual = 0.00044183, No Iterations 6
smoothSolver:  Solving for Uy, Initial residual = 0.0502989, Final residual = 0.00392078, No Iterations 3
Pressure gradient source: uncorrected Ubar = 0.999984, pressure gradient = 0.00253974
GAMG:  Solving for p, Initial residual = 0.025576, Final residual = 0.0022317, No Iterations 9
time step continuity errors : sum local = 1.21244e-06, global = -2.95776e-18, cumulative = -1.86526e-17
Pressure gradient source: uncorrected Ubar = 0.999999, pressure gradient = 0.00210192
smoothSolver:  Solving for omega, Initial residual = 0.000455442, Final residual = 2.97473e-05, No Iterations 5
smoothSolver:  Solving for k, Initial residual = 0.00576126, Final residual = 0.000420703, No Iterations 5
ExecutionTime = 0.142252 s  ClockTime = 0 s

Time = 48s

smoothSolver:  Solving for Ux, Initial residual = 0.00624931, Final residual = 0.000438771, No Iterations 6
smoothSolver:  Solving for Uy, Initial residual = 0.0492886, Final residual = 0.00470633, No Iterations 3
Pressure gradient source: uncorrected Ubar = 0.999985, pressure gradient = 0.00253342
GAMG:  Solving for p, Initial residual = 0.0209218, Final residual = 0.0020131, No Iterations 7
time step continuity errors : sum local = 1.03296e-06, global = -1.28132e-18, cumulative = -1.9934e-17
Pressure gradient source: uncorrected Ubar = 0.999999, pressure gradient = 0.00211699
smoothSolver:  Solving for omega, Initial residual = 0.000452936, Final residual = 3.53449e-05, No Iterations 5
smoothSolver:  Solving for k, Initial residual = 0.00597474, Final residual = 0.000544512, No Iterations 5
ExecutionTime = 0.144529 s  ClockTime = 0 s

Time = 49s

smoothSolver:  Solving for Ux, Initial residual = 0.00622293, Final residual = 0.000435849, No Iterations 6
smoothSolver:  Solving for Uy, Initial residual = 0.03736, Final residual = 0.00365467, No Iterations 3
Pressure gradient source: uncorrected Ubar = 0.999985, pressure gradient = 0.00256853
GAMG:  Solving for p, Initial residual = 0.0169524, Final residual = 0.00163733, No Iterations 12
time step continuity errors : sum local = 9.41496e-07, global = -4.47196e-18, cumulative = -2.44059e-17
Pressure gradient source: uncorrected Ubar = 0.999999, pressure gradient = 0.00213479
smoothSolver:  Solving for omega, Initial residual = 0.000436454, Final residual = 3.52838e-05, No Iterations 5
smoothSolver:  Solving for k, Initial residual = 0.00651396, Final residual = 0.000451678, No Iterations 6
ExecutionTime = 0.146843 s  ClockTime = 0 s

Time = 50s

smoothSolver:  Solving for Ux, Initial residual = 0.00619225, Final residual = 0.00043273, No Iterations 6
smoothSolver:  Solving for Uy, Initial residual = 0.0316347, Final residual = 0.00282892, No Iterations 3
Pressure gradient source: uncorrected Ubar = 0.999986, pressure gradient = 0.00255143
GAMG:  Solving for p, Initial residual = 0.0170925, Final residual = 0.00159634, No Iterations 15
time step continuity errors : sum local = 7.81907e-07, global = -6.6038e-18, cumulative = -3.10097e-17
Pressure gradient source: uncorrected Ubar = 1, pressure gradient = 0.00214596
smoothSolver:  Solving for omega, Initial residual = 0.000426372, Final residual = 3.23022e-05, No Iterations 5
smoothSolver:  Solving for k, Initial residual = 0.00650954, Final residual = 0.000422073, No Iterations 6
ExecutionTime = 0.149183 s  ClockTime = 0 s

Time = 51s

smoothSolver:  Solving for Ux, Initial residual = 0.00616382, Final residual = 0.000429699, No Iterations 6
smoothSolver:  Solving for Uy, Initial residual = 0.0274499, Final residual = 0.00252685, No Iterations 3
Pressure gradient source: uncorrected Ubar = 0.999988, pressure gradient = 0.00250591
GAMG:  Solving for p, Initial residual = 0.0176553, Final residual = 0.00174773, No Iterations 13
time step continuity errors : sum local = 9.29014e-07, global = -5.98773e-18, cumulative = -3.69975e-17
Pressure gradient source: uncorrected Ubar = 1, pressure gradient = 0.00214679
smoothSolver:  Solving for omega, Initial residual = 0.000414266, Final residual = 2.95096e-05, No Iterations 5
smoothSolver:  Solving for k, Initial residual = 0.00647844, Final residual = 0.000591697, No Iterations 5
ExecutionTime = 0.151389 s  ClockTime = 0 s

Time = 52s

smoothSolver:  Solving for Ux, Initial residual = 0.00614633, Final residual = 0.000427798, No Iterations 6
smoothSolver:  Solving for Uy, Initial residual = 0.0305441, Final residual = 0.00164274, No Iterations 4
Pressure gradient source: uncorrected Ubar = 0.999984, pressure gradient = 0.00262921
GAMG:  Solving for p, Initial residual = 0.02014, Final residual = 0.00163813, No Iterations 9
time step continuity errors : sum local = 8.7368e-07, global = 4.65047e-19, cumulative = -3.65324e-17
Pressure gradient source: uncorrected Ubar = 0.999999, pressure gradient = 0.00216875
smoothSolver:  Solving for omega, Initial residual = 0.000400104, Final residual = 2.50947e-05, No Iterations 5
smoothSolver:  Solving for k, Initial residual = 0.00692216, Final residual = 0.000452646, No Iterations 6
ExecutionTime = 0.153504 s  ClockTime = 0 s

Time = 53s

smoothSolver:  Solving for Ux, Initial residual = 0.00612804, Final residual = 0.000425765, No Iterations 6
smoothSolver:  Solving for Uy, Initial residual = 0.0362524, Final residual = 0.00333699, No Iterations 3
Pressure gradient source: uncorrected Ubar = 0.999986, pressure gradient = 0.00260654
GAMG:  Solving for p, Initial residual = 0.0191316, Final residual = 0.00173722, No Iterations 6
time step continuity errors : sum local = 9.11753e-07, global = 8.08292e-18, cumulative = -2.84495e-17
Pressure gradient source: uncorrected Ubar = 1, pressure gradient = 0.0021824
smoothSolver:  Solving for omega, Initial residual = 0.000400198, Final residual = 3.03549e-05, No Iterations 5
smoothSolver:  Solving for k, Initial residual = 0.00680835, Final residual = 0.000619708, No Iterations 5
ExecutionTime = 0.155509 s  ClockTime = 0 s

Time = 54s

smoothSolver:  Solving for Ux, Initial residual = 0.00611207, Final residual = 0.000423959, No Iterations 6
smoothSolver:  Solving for Uy, Initial residual = 0.0349071, Final residual = 0.00230217, No Iterations 4
Pressure gradient source: uncorrected Ubar = 0.999986, pressure gradient = 0.00261564
GAMG:  Solving for p, Initial residual = 0.0133496, Final residual = 0.00119136, No Iterations 11
time step continuity errors : sum local = 6.46866e-07, global = -3.8901e-18, cumulative = -3.23396e-17
Pressure gradient source: uncorrected Ubar = 1, pressure gradient = 0.00219496
smoothSolver:  Solving for omega, Initial residual = 0.000397134, Final residual = 3.38984e-05, No Iterations 5
smoothSolver:  Solving for k, Initial residual = 0.00728945, Final residual = 0.00049935, No Iterations 6
ExecutionTime = 0.157814 s  ClockTime = 0 s

Time = 55s

smoothSolver:  Solving for Ux, Initial residual = 0.00608864, Final residual = 0.000421568, No Iterations 6
smoothSolver:  Solving for Uy, Initial residual = 0.0309174, Final residual = 0.00192013, No Iterations 4
Pressure gradient source: uncorrected Ubar = 0.999987, pressure gradient = 0.00258883
GAMG:  Solving for p, Initial residual = 0.0126889, Final residual = 0.00122417, No Iterations 13
time step continuity errors : sum local = 5.74029e-07, global = 9.96708e-18, cumulative = -2.23725e-17
Pressure gradient source: uncorrected Ubar = 1, pressure gradient = 0.00220034
smoothSolver:  Solving for omega, Initial residual = 0.000389875, Final residual = 3.40616e-05, No Iterations 5
smoothSolver:  Solving for k, Initial residual = 0.00741162, Final residual = 0.000482722, No Iterations 6
ExecutionTime = 0.160288 s  ClockTime = 0 s

Time = 56s

smoothSolver:  Solving for Ux, Initial residual = 0.0060651, Final residual = 0.000418999, No Iterations 6
smoothSolver:  Solving for Uy, Initial residual = 0.025944, Final residual = 0.00240135, No Iterations 3
Pressure gradient source: uncorrected Ubar = 0.999988, pressure gradient = 0.0025664
GAMG:  Solving for p, Initial residual = 0.0130932, Final residual = 0.00130385, No Iterations 7
time step continuity errors : sum local = 7.41181e-07, global = 6.28393e-20, cumulative = -2.23097e-17
Pressure gradient source: uncorrected Ubar = 1, pressure gradient = 0.00220048
smoothSolver:  Solving for omega, Initial residual = 0.000377051, Final residual = 3.23126e-05, No Iterations 5
smoothSolver:  Solving for k, Initial residual = 0.00747299, Final residual = 0.000731078, No Iterations 5
ExecutionTime = 0.162505 s  ClockTime = 0 s

Time = 57s

smoothSolver:  Solving for Ux, Initial residual = 0.00605095, Final residual = 0.000417396, No Iterations 6
smoothSolver:  Solving for Uy, Initial residual = 0.0314091, Final residual = 0.00186617, No Iterations 4
Pressure gradient source: uncorrected Ubar = 0.999985, pressure gradient = 0.00265316
GAMG:  Solving for p, Initial residual = 0.0123594, Final residual = 0.00119791, No Iterations 9
time step continuity errors : sum local = 6.35103e-07, global = -6.4445e-18, cumulative = -2.87542e-17
Pressure gradient source: uncorrected Ubar = 1, pressure gradient = 0.00221569
smoothSolver:  Solving for omega, Initial residual = 0.000358432, Final residual = 2.34751e-05, No Iterations 5
smoothSolver:  Solving for k, Initial residual = 0.00757517, Final residual = 0.000728378, No Iterations 5
ExecutionTime = 0.164688 s  ClockTime = 0 s

Time = 58s

smoothSolver:  Solving for Ux, Initial residual = 0.00603833, Final residual = 0.000415904, No Iterations 6
smoothSolver:  Solving for Uy, Initial residual = 0.0502418, Final residual = 0.00296742, No Iterations 4
Pressure gradient source: uncorrected Ubar = 0.999987, pressure gradient = 0.00262527
GAMG:  Solving for p, Initial residual = 0.0203579, Final residual = 0.001401, No Iterations 4
time step continuity errors : sum local = 6.97924e-07, global = -1.0377e-17, cumulative = -3.91312e-17
Pressure gradient source: uncorrected Ubar = 1, pressure gradient = 0.00222319
smoothSolver:  Solving for omega, Initial residual = 0.000355098, Final residual = 2.4134e-05, No Iterations 5
smoothSolver:  Solving for k, Initial residual = 0.00792353, Final residual = 0.000544159, No Iterations 6
ExecutionTime = 0.166706 s  ClockTime = 0 s

Time = 59s

smoothSolver:  Solving for Ux, Initial residual = 0.00601716, Final residual = 0.000413679, No Iterations 6
smoothSolver:  Solving for Uy, Initial residual = 0.0384707, Final residual = 0.00222156, No Iterations 4
Pressure gradient source: uncorrected Ubar = 0.999989, pressure gradient = 0.00256875
GAMG:  Solving for p, Initial residual = 0.0194619, Final residual = 0.00189919, No Iterations 8
time step continuity errors : sum local = 1.04956e-06, global = -1.32061e-17, cumulative = -5.23373e-17
Pressure gradient source: uncorrected Ubar = 1, pressure gradient = 0.00221937
smoothSolver:  Solving for omega, Initial residual = 0.000348503, Final residual = 2.24213e-05, No Iterations 5
smoothSolver:  Solving for k, Initial residual = 0.00831544, Final residual = 0.000567031, No Iterations 6
ExecutionTime = 0.168793 s  ClockTime = 0 s

Time = 60s

smoothSolver:  Solving for Ux, Initial residual = 0.00600425, Final residual = 0.000411944, No Iterations 6
smoothSolver:  Solving for Uy, Initial residual = 0.0333898, Final residual = 0.00223921, No Iterations 4
Pressure gradient source: uncorrected Ubar = 0.999987, pressure gradient = 0.00262826
GAMG:  Solving for p, Initial residual = 0.014972, Final residual = 0.00147896, No Iterations 4
time step continuity errors : sum local = 8.65532e-07, global = -5.30847e-18, cumulative = -5.76458e-17
Pressure gradient source: uncorrected Ubar = 1, pressure gradient = 0.00222663
smoothSolver:  Solving for omega, Initial residual = 0.00034866, Final residual = 2.64285e-05, No Iterations 5
smoothSolver:  Solving for k, Initial residual = 0.00835838, Final residual = 0.00056076, No Iterations 6
ExecutionTime = 0.170798 s  ClockTime = 0 s

Time = 61s

smoothSolver:  Solving for Ux, Initial residual = 0.00599211, Final residual = 0.000410409, No Iterations 6
smoothSolver:  Solving for Uy, Initial residual = 0.0296263, Final residual = 0.00164832, No Iterations 4
Pressure gradient source: uncorrected Ubar = 0.999988, pressure gradient = 0.00261317
GAMG:  Solving for p, Initial residual = 0.0118396, Final residual = 0.00114189, No Iterations 8
time step continuity errors : sum local = 6.20144e-07, global = 1.44872e-18, cumulative = -5.61971e-17
Pressure gradient source: uncorrected Ubar = 1, pressure gradient = 0.00222991
smoothSolver:  Solving for omega, Initial residual = 0.000343675, Final residual = 2.74209e-05, No Iterations 5
smoothSolver:  Solving for k, Initial residual = 0.00871629, Final residual = 0.000609012, No Iterations 6
ExecutionTime = 0.172872 s  ClockTime = 0 s

Time = 62s

smoothSolver:  Solving for Ux, Initial residual = 0.0059724, Final residual = 0.000408454, No Iterations 6
smoothSolver:  Solving for Uy, Initial residual = 0.0279538, Final residual = 0.00191234, No Iterations 4
Pressure gradient source: uncorrected Ubar = 0.999988, pressure gradient = 0.00261803
GAMG:  Solving for p, Initial residual = 0.0110986, Final residual = 0.00102327, No Iterations 3
time step continuity errors : sum local = 5.29486e-07, global = 5.30314e-18, cumulative = -5.08939e-17
Pressure gradient source: uncorrected Ubar = 1, pressure gradient = 0.00223336
smoothSolver:  Solving for omega, Initial residual = 0.000332314, Final residual = 2.37186e-05, No Iterations 5
smoothSolver:  Solving for k, Initial residual = 0.00877989, Final residual = 0.000873314, No Iterations 5
ExecutionTime = 0.174878 s  ClockTime = 0 s

Time = 63s

smoothSolver:  Solving for Ux, Initial residual = 0.00595832, Final residual = 0.00040703, No Iterations 6
smoothSolver:  Solving for Uy, Initial residual = 0.0332028, Final residual = 0.00190676, No Iterations 4
Pressure gradient source: uncorrected Ubar = 0.999987, pressure gradient = 0.00264376
GAMG:  Solving for p, Initial residual = 0.0124524, Final residual = 0.00122522, No Iterations 3
time step continuity errors : sum local = 6.19457e-07, global = -6.49701e-20, cumulative = -5.09589e-17
Pressure gradient source: uncorrected Ubar = 1, pressure gradient = 0.00224073
smoothSolver:  Solving for omega, Initial residual = 0.00032744, Final residual = 2.30447e-05, No Iterations 5
smoothSolver:  Solving for k, Initial residual = 0.00912931, Final residual = 0.000647634, No Iterations 6
ExecutionTime = 0.17709 s  ClockTime = 0 s

Time = 64s

smoothSolver:  Solving for Ux, Initial residual = 0.00594352, Final residual = 0.000405394, No Iterations 6
smoothSolver:  Solving for Uy, Initial residual = 0.032443, Final residual = 0.00235266, No Iterations 4
Pressure gradient source: uncorrected Ubar = 0.999988, pressure gradient = 0.00262286
GAMG:  Solving for p, Initial residual = 0.0113351, Final residual = 0.000939995, No Iterations 4
time step continuity errors : sum local = 5.14406e-07, global = -7.00255e-18, cumulative = -5.79614e-17
Pressure gradient source: uncorrected Ubar = 1, pressure gradient = 0.00224307
smoothSolver:  Solving for omega, Initial residual = 0.000320251, Final residual = 2.04406e-05, No Iterations 5
smoothSolver:  Solving for k, Initial residual = 0.00952173, Final residual = 0.000684251, No Iterations 6
ExecutionTime = 0.179182 s  ClockTime = 0 s

Time = 65s

smoothSolver:  Solving for Ux, Initial residual = 0.00592451, Final residual = 0.000403271, No Iterations 6
smoothSolver:  Solving for Uy, Initial residual = 0.0411768, Final residual = 0.00263328, No Iterations 4
Pressure gradient source: uncorrected Ubar = 0.99999, pressure gradient = 0.00257117
GAMG:  Solving for p, Initial residual = 0.0134123, Final residual = 0.00131328, No Iterations 5
time step continuity errors : sum local = 7.98089e-07, global = -7.61454e-18, cumulative = -6.5576e-17
Pressure gradient source: uncorrected Ubar = 1, pressure gradient = 0.00223598
smoothSolver:  Solving for omega, Initial residual = 0.000315057, Final residual = 2.24146e-05, No Iterations 5
smoothSolver:  Solving for k, Initial residual = 0.00981017, Final residual = 0.000709788, No Iterations 6
ExecutionTime = 0.181205 s  ClockTime = 0 s

Time = 66s

smoothSolver:  Solving for Ux, Initial residual = 0.00591206, Final residual = 0.000401683, No Iterations 6
smoothSolver:  Solving for Uy, Initial residual = 0.0471523, Final residual = 0.00453024, No Iterations 3
Pressure gradient source: uncorrected Ubar = 0.999988, pressure gradient = 0.00262267
GAMG:  Solving for p, Initial residual = 0.0141004, Final residual = 0.00140417, No Iterations 7
time step continuity errors : sum local = 9.01917e-07, global = 8.53318e-19, cumulative = -6.47227e-17
Pressure gradient source: uncorrected Ubar = 1, pressure gradient = 0.00223955
smoothSolver:  Solving for omega, Initial residual = 0.000311686, Final residual = 2.38731e-05, No Iterations 5
smoothSolver:  Solving for k, Initial residual = 0.0100594, Final residual = 0.000712982, No Iterations 6
ExecutionTime = 0.183261 s  ClockTime = 0 s

Time = 67s

smoothSolver:  Solving for Ux, Initial residual = 0.00589672, Final residual = 0.000400004, No Iterations 6
smoothSolver:  Solving for Uy, Initial residual = 0.0347053, Final residual = 0.00188519, No Iterations 4
Pressure gradient source: uncorrected Ubar = 0.999988, pressure gradient = 0.00263542
GAMG:  Solving for p, Initial residual = 0.0139827, Final residual = 0.00125148, No Iterations 13
time step continuity errors : sum local = 7.6805e-07, global = 2.07767e-18, cumulative = -6.2645e-17
Pressure gradient source: uncorrected Ubar = 1, pressure gradient = 0.00224494
smoothSolver:  Solving for omega, Initial residual = 0.000308253, Final residual = 2.36213e-05, No Iterations 5
smoothSolver:  Solving for k, Initial residual = 0.0103224, Final residual = 0.000776184, No Iterations 6
ExecutionTime = 0.185536 s  ClockTime = 0 s

Time = 68s

smoothSolver:  Solving for Ux, Initial residual = 0.00588007, Final residual = 0.00039801, No Iterations 6
smoothSolver:  Solving for Uy, Initial residual = 0.038868, Final residual = 0.00242511, No Iterations 4
Pressure gradient source: uncorrected Ubar = 0.999989, pressure gradient = 0.00260059
GAMG:  Solving for p, Initial residual = 0.00934939, Final residual = 0.000913979, No Iterations 18
time step continuity errors : sum local = 5.1367e-07, global = 1.55968e-18, cumulative = -6.10853e-17
Pressure gradient source: uncorrected Ubar = 1, pressure gradient = 0.00224339
smoothSolver:  Solving for omega, Initial residual = 0.000295837, Final residual = 2.05204e-05, No Iterations 5
smoothSolver:  Solving for k, Initial residual = 0.0103697, Final residual = 0.000693451, No Iterations 6
ExecutionTime = 0.187908 s  ClockTime = 0 s

Time = 69s

smoothSolver:  Solving for Ux, Initial residual = 0.00586802, Final residual = 0.000396494, No Iterations 6
smoothSolver:  Solving for Uy, Initial residual = 0.0605109, Final residual = 0.0045475, No Iterations 4
Pressure gradient source: uncorrected Ubar = 0.999988, pressure gradient = 0.00264264
GAMG:  Solving for p, Initial residual = 0.0176439, Final residual = 0.00129688, No Iterations 7
time step continuity errors : sum local = 6.78667e-07, global = -1.17017e-18, cumulative = -6.22555e-17
Pressure gradient source: uncorrected Ubar = 1, pressure gradient = 0.00224989
smoothSolver:  Solving for omega, Initial residual = 0.000298424, Final residual = 2.21606e-05, No Iterations 5
smoothSolver:  Solving for k, Initial residual = 0.0107729, Final residual = 0.000764205, No Iterations 6
ExecutionTime = 0.19003 s  ClockTime = 0 s

Time = 70s

smoothSolver:  Solving for Ux, Initial residual = 0.00584991, Final residual = 0.000394288, No Iterations 6
smoothSolver:  Solving for Uy, Initial residual = 0.0426567, Final residual = 0.00290151, No Iterations 4
Pressure gradient source: uncorrected Ubar = 0.99999, pressure gradient = 0.00258204
GAMG:  Solving for p, Initial residual = 0.0182074, Final residual = 0.00167255, No Iterations 6
time step continuity errors : sum local = 8.44907e-07, global = 9.19084e-18, cumulative = -5.30646e-17
Pressure gradient source: uncorrected Ubar = 1, pressure gradient = 0.00224473
smoothSolver:  Solving for omega, Initial residual = 0.000290291, Final residual = 2.01107e-05, No Iterations 5
smoothSolver:  Solving for k, Initial residual = 0.0109418, Final residual = 0.000760005, No Iterations 6
ExecutionTime = 0.192125 s  ClockTime = 0 s

Time = 71s

smoothSolver:  Solving for Ux, Initial residual = 0.00583879, Final residual = 0.000392434, No Iterations 6
smoothSolver:  Solving for Uy, Initial residual = 0.0461018, Final residual = 0.00395267, No Iterations 3
Pressure gradient source: uncorrected Ubar = 0.999989, pressure gradient = 0.00261104
GAMG:  Solving for p, Initial residual = 0.0193246, Final residual = 0.00154267, No Iterations 4
time step continuity errors : sum local = 8.02893e-07, global = 1.40535e-17, cumulative = -3.90111e-17
Pressure gradient source: uncorrected Ubar = 1, pressure gradient = 0.00224592
smoothSolver:  Solving for omega, Initial residual = 0.000284204, Final residual = 2.18007e-05, No Iterations 5
smoothSolver:  Solving for k, Initial residual = 0.0112734, Final residual = 0.000788244, No Iterations 6
ExecutionTime = 0.194303 s  ClockTime = 0 s

Time = 72s

smoothSolver:  Solving for Ux, Initial residual = 0.00582893, Final residual = 0.000390868, No Iterations 6
smoothSolver:  Solving for Uy, Initial residual = 0.0409488, Final residual = 0.00355854, No Iterations 3
Pressure gradient source: uncorrected Ubar = 0.999988, pressure gradient = 0.00264098
GAMG:  Solving for p, Initial residual = 0.0178749, Final residual = 0.00165974, No Iterations 7
time step continuity errors : sum local = 9.02469e-07, global = 1.02063e-17, cumulative = -2.88049e-17
Pressure gradient source: uncorrected Ubar = 1, pressure gradient = 0.00225263
smoothSolver:  Solving for omega, Initial residual = 0.000283603, Final residual = 2.21969e-05, No Iterations 5
smoothSolver:  Solving for k, Initial residual = 0.0115832, Final residual = 0.000828618, No Iterations 6
ExecutionTime = 0.196467 s  ClockTime = 0 s

Time = 73s

smoothSolver:  Solving for Ux, Initial residual = 0.00580978, Final residual = 0.00038852, No Iterations 6
smoothSolver:  Solving for Uy, Initial residual = 0.0396784, Final residual = 0.00257097, No Iterations 4
Pressure gradient source: uncorrected Ubar = 0.99999, pressure gradient = 0.00259153
GAMG:  Solving for p, Initial residual = 0.0154701, Final residual = 0.0013782, No Iterations 4
time step continuity errors : sum local = 6.58309e-07, global = -2.20901e-18, cumulative = -3.10139e-17
Pressure gradient source: uncorrected Ubar = 1, pressure gradient = 0.00224972
smoothSolver:  Solving for omega, Initial residual = 0.000273886, Final residual = 1.97555e-05, No Iterations 5
smoothSolver:  Solving for k, Initial residual = 0.0120565, Final residual = 0.000876765, No Iterations 6
ExecutionTime = 0.198512 s  ClockTime = 0 s

Time = 74s

smoothSolver:  Solving for Ux, Initial residual = 0.00579402, Final residual = 0.000386315, No Iterations 6
smoothSolver:  Solving for Uy, Initial residual = 0.0317498, Final residual = 0.00162687, No Iterations 4
Pressure gradient source: uncorrected Ubar = 0.999989, pressure gradient = 0.00262059
GAMG:  Solving for p, Initial residual = 0.013043, Final residual = 0.00116451, No Iterations 9
time step continuity errors : sum local = 6.27243e-07, global = 3.9843e-18, cumulative = -2.70296e-17
Pressure gradient source: uncorrected Ubar = 1, pressure gradient = 0.00225288
smoothSolver:  Solving for omega, Initial residual = 0.00027493, Final residual = 2.20599e-05, No Iterations 5
smoothSolver:  Solving for k, Initial residual = 0.0123622, Final residual = 0.00091588, No Iterations 6
ExecutionTime = 0.200594 s  ClockTime = 0 s

Time = 75s

smoothSolver:  Solving for Ux, Initial residual = 0.00576971, Final residual = 0.000383954, No Iterations 6
smoothSolver:  Solving for Uy, Initial residual = 0.0373598, Final residual = 0.00285279, No Iterations 4
Pressure gradient source: uncorrected Ubar = 0.99999, pressure gradient = 0.00258604
GAMG:  Solving for p, Initial residual = 0.0143057, Final residual = 0.0014195, No Iterations 7
time step continuity errors : sum local = 7.26484e-07, global = -1.80175e-17, cumulative = -4.50471e-17
Pressure gradient source: uncorrected Ubar = 1, pressure gradient = 0.00224958
smoothSolver:  Solving for omega, Initial residual = 0.000268168, Final residual = 2.16322e-05, No Iterations 5
smoothSolver:  Solving for k, Initial residual = 0.0126198, Final residual = 0.000933164, No Iterations 6
ExecutionTime = 0.202677 s  ClockTime = 0 s

Time = 76s

smoothSolver:  Solving for Ux, Initial residual = 0.00574916, Final residual = 0.000381436, No Iterations 6
smoothSolver:  Solving for Uy, Initial residual = 0.0385623, Final residual = 0.00260532, No Iterations 4
Pressure gradient source: uncorrected Ubar = 0.99999, pressure gradient = 0.00257877
GAMG:  Solving for p, Initial residual = 0.0149581, Final residual = 0.00143206, No Iterations 9
time step continuity errors : sum local = 7.6161e-07, global = 4.56241e-18, cumulative = -4.04847e-17
Pressure gradient source: uncorrected Ubar = 1, pressure gradient = 0.00224606
smoothSolver:  Solving for omega, Initial residual = 0.000260327, Final residual = 1.8254e-05, No Iterations 5
smoothSolver:  Solving for k, Initial residual = 0.0126278, Final residual = 0.000824672, No Iterations 6
ExecutionTime = 0.204762 s  ClockTime = 0 s

Time = 77s

smoothSolver:  Solving for Ux, Initial residual = 0.00572903, Final residual = 0.000379048, No Iterations 6
smoothSolver:  Solving for Uy, Initial residual = 0.0595961, Final residual = 0.00398606, No Iterations 4
Pressure gradient source: uncorrected Ubar = 0.999989, pressure gradient = 0.00262782
GAMG:  Solving for p, Initial residual = 0.0229485, Final residual = 0.0020421, No Iterations 3
time step continuity errors : sum local = 9.31037e-07, global = -4.63192e-18, cumulative = -4.51166e-17
Pressure gradient source: uncorrected Ubar = 1, pressure gradient = 0.00225223
smoothSolver:  Solving for omega, Initial residual = 0.000256768, Final residual = 1.90034e-05, No Iterations 5
smoothSolver:  Solving for k, Initial residual = 0.013095, Final residual = 0.000887032, No Iterations 6
ExecutionTime = 0.206785 s  ClockTime = 0 s

Time = 78s

smoothSolver:  Solving for Ux, Initial residual = 0.00570776, Final residual = 0.000570475, No Iterations 5
smoothSolver:  Solving for Uy, Initial residual = 0.051792, Final residual = 0.00341985, No Iterations 4
Pressure gradient source: uncorrected Ubar = 0.999982, pressure gradient = 0.00287503
GAMG:  Solving for p, Initial residual = 0.0199588, Final residual = 0.00067624, No Iterations 4
time step continuity errors : sum local = 3.19867e-07, global = 5.10693e-18, cumulative = -4.00097e-17
Pressure gradient source: uncorrected Ubar = 0.999999, pressure gradient = 0.00228419
smoothSolver:  Solving for omega, Initial residual = 0.000246164, Final residual = 1.88719e-05, No Iterations 5
smoothSolver:  Solving for k, Initial residual = 0.0132208, Final residual = 0.000864523, No Iterations 6
ExecutionTime = 0.20881 s  ClockTime = 0 s

Time = 79s

smoothSolver:  Solving for Ux, Initial residual = 0.00567702, Final residual = 0.000566721, No Iterations 5
smoothSolver:  Solving for Uy, Initial residual = 0.0521917, Final residual = 0.00361612, No Iterations 4
Pressure gradient source: uncorrected Ubar = 0.999987, pressure gradient = 0.00272062
GAMG:  Solving for p, Initial residual = 0.0181577, Final residual = 0.00179336, No Iterations 3
time step continuity errors : sum local = 9.40836e-07, global = -2.94079e-18, cumulative = -4.29505e-17
Pressure gradient source: uncorrected Ubar = 1, pressure gradient = 0.00228265
smoothSolver:  Solving for omega, Initial residual = 0.000247917, Final residual = 2.19085e-05, No Iterations 5
smoothSolver:  Solving for k, Initial residual = 0.0137303, Final residual = 0.000967805, No Iterations 6
ExecutionTime = 0.210956 s  ClockTime = 0 s

Time = 80s

smoothSolver:  Solving for Ux, Initial residual = 0.00565371, Final residual = 0.000563956, No Iterations 5
smoothSolver:  Solving for Uy, Initial residual = 0.0375824, Final residual = 0.00332552, No Iterations 4
Pressure gradient source: uncorrected Ubar = 0.999984, pressure gradient = 0.00281195
GAMG:  Solving for p, Initial residual = 0.0130896, Final residual = 0.00115086, No Iterations 10
time step continuity errors : sum local = 5.64623e-07, global = -2.83266e-19, cumulative = -4.32337e-17
Pressure gradient source: uncorrected Ubar = 1, pressure gradient = 0.00229889
smoothSolver:  Solving for omega, Initial residual = 0.000246578, Final residual = 2.38928e-05, No Iterations 5
smoothSolver:  Solving for k, Initial residual = 0.0141647, Final residual = 0.0010675, No Iterations 6
ExecutionTime = 0.213191 s  ClockTime = 0 s

Time = 81s

smoothSolver:  Solving for Ux, Initial residual = 0.00561651, Final residual = 0.000559381, No Iterations 5
smoothSolver:  Solving for Uy, Initial residual = 0.0359689, Final residual = 0.00343389, No Iterations 4
Pressure gradient source: uncorrected Ubar = 0.999987, pressure gradient = 0.00272524
GAMG:  Solving for p, Initial residual = 0.0112028, Final residual = 0.00100763, No Iterations 9
time step continuity errors : sum local = 5.54918e-07, global = 7.5731e-18, cumulative = -3.56606e-17
Pressure gradient source: uncorrected Ubar = 1, pressure gradient = 0.00229676
smoothSolver:  Solving for omega, Initial residual = 0.000240721, Final residual = 2.16699e-05, No Iterations 5
smoothSolver:  Solving for k, Initial residual = 0.0146365, Final residual = 0.00117778, No Iterations 6
ExecutionTime = 0.215336 s  ClockTime = 0 s

Time = 82s

smoothSolver:  Solving for Ux, Initial residual = 0.00558102, Final residual = 0.000554809, No Iterations 5
smoothSolver:  Solving for Uy, Initial residual = 0.035107, Final residual = 0.0025967, No Iterations 4
Pressure gradient source: uncorrected Ubar = 0.999987, pressure gradient = 0.00274025
GAMG:  Solving for p, Initial residual = 0.0168858, Final residual = 0.00165485, No Iterations 7
time step continuity errors : sum local = 8.55643e-07, global = 2.88034e-18, cumulative = -3.27803e-17
Pressure gradient source: uncorrected Ubar = 1, pressure gradient = 0.0022984
smoothSolver:  Solving for omega, Initial residual = 0.000226366, Final residual = 1.51279e-05, No Iterations 5
smoothSolver:  Solving for k, Initial residual = 0.0149607, Final residual = 0.00122538, No Iterations 6
ExecutionTime = 0.217387 s  ClockTime = 0 s

Time = 83s

smoothSolver:  Solving for Ux, Initial residual = 0.00554683, Final residual = 0.000549694, No Iterations 5
smoothSolver:  Solving for Uy, Initial residual = 0.025931, Final residual = 0.0015556, No Iterations 4
Pressure gradient source: uncorrected Ubar = 0.999988, pressure gradient = 0.00271389
GAMG:  Solving for p, Initial residual = 0.0160145, Final residual = 0.00112174, No Iterations 3
time step continuity errors : sum local = 5.58576e-07, global = -2.42084e-18, cumulative = -3.52011e-17
Pressure gradient source: uncorrected Ubar = 1, pressure gradient = 0.00229578
smoothSolver:  Solving for omega, Initial residual = 0.00022878, Final residual = 1.81714e-05, No Iterations 5
smoothSolver:  Solving for k, Initial residual = 0.01538, Final residual = 0.00127076, No Iterations 6
ExecutionTime = 0.219288 s  ClockTime = 0 s

Time = 84s

smoothSolver:  Solving for Ux, Initial residual = 0.00551179, Final residual = 0.000544174, No Iterations 5
smoothSolver:  Solving for Uy, Initial residual = 0.0461557, Final residual = 0.00260934, No Iterations 4
Pressure gradient source: uncorrected Ubar = 0.999987, pressure gradient = 0.00273998
GAMG:  Solving for p, Initial residual = 0.0165381, Final residual = 0.00126925, No Iterations 3
time step continuity errors : sum local = 7.3419e-07, global = -4.45381e-18, cumulative = -3.96549e-17
Pressure gradient source: uncorrected Ubar = 1, pressure gradient = 0.00229918
smoothSolver:  Solving for omega, Initial residual = 0.000222057, Final residual = 1.65218e-05, No Iterations 5
smoothSolver:  Solving for k, Initial residual = 0.0153679, Final residual = 0.00113051, No Iterations 6
ExecutionTime = 0.221186 s  ClockTime = 0 s

Time = 85s

smoothSolver:  Solving for Ux, Initial residual = 0.00546528, Final residual = 0.000538205, No Iterations 5
smoothSolver:  Solving for Uy, Initial residual = 0.057194, Final residual = 0.00432472, No Iterations 4
Pressure gradient source: uncorrected Ubar = 0.999987, pressure gradient = 0.00272823
GAMG:  Solving for p, Initial residual = 0.0162361, Final residual = 0.00149121, No Iterations 3
time step continuity errors : sum local = 9.09001e-07, global = 2.08023e-18, cumulative = -3.75747e-17
Pressure gradient source: uncorrected Ubar = 1, pressure gradient = 0.00230056
smoothSolver:  Solving for omega, Initial residual = 0.000221661, Final residual = 1.75242e-05, No Iterations 5
smoothSolver:  Solving for k, Initial residual = 0.0156558, Final residual = 0.001153, No Iterations 6
ExecutionTime = 0.22316 s  ClockTime = 0 s

Time = 86s

smoothSolver:  Solving for Ux, Initial residual = 0.0053514, Final residual = 0.000529674, No Iterations 5
smoothSolver:  Solving for Uy, Initial residual = 0.0559635, Final residual = 0.00452462, No Iterations 4
Pressure gradient source: uncorrected Ubar = 0.999989, pressure gradient = 0.00267288
GAMG:  Solving for p, Initial residual = 0.015756, Final residual = 0.000975329, No Iterations 4
time step continuity errors : sum local = 6.10321e-07, global = 3.41516e-18, cumulative = -3.41596e-17
Pressure gradient source: uncorrected Ubar = 1, pressure gradient = 0.00229232
smoothSolver:  Solving for omega, Initial residual = 0.000216798, Final residual = 1.67599e-05, No Iterations 5
smoothSolver:  Solving for k, Initial residual = 0.015761, Final residual = 0.0011559, No Iterations 6
ExecutionTime = 0.225141 s  ClockTime = 0 s

Time = 87s

smoothSolver:  Solving for Ux, Initial residual = 0.00527956, Final residual = 0.000521872, No Iterations 5
smoothSolver:  Solving for Uy, Initial residual = 0.0712698, Final residual = 0.00560409, No Iterations 4
Pressure gradient source: uncorrected Ubar = 0.999988, pressure gradient = 0.00270974
GAMG:  Solving for p, Initial residual = 0.0111387, Final residual = 0.00103441, No Iterations 8
time step continuity errors : sum local = 6.71554e-07, global = -2.04331e-18, cumulative = -3.62029e-17
Pressure gradient source: uncorrected Ubar = 1, pressure gradient = 0.00229311
smoothSolver:  Solving for omega, Initial residual = 0.000216074, Final residual = 2.00808e-05, No Iterations 5
smoothSolver:  Solving for k, Initial residual = 0.0160624, Final residual = 0.00119251, No Iterations 6
ExecutionTime = 0.227479 s  ClockTime = 0 s

Time = 88s

smoothSolver:  Solving for Ux, Initial residual = 0.0052133, Final residual = 0.000514702, No Iterations 5
smoothSolver:  Solving for Uy, Initial residual = 0.0457731, Final residual = 0.00311342, No Iterations 4
Pressure gradient source: uncorrected Ubar = 0.999988, pressure gradient = 0.0026883
GAMG:  Solving for p, Initial residual = 0.00934574, Final residual = 0.00080039, No Iterations 6
time step continuity errors : sum local = 5.7604e-07, global = -1.28659e-18, cumulative = -3.74895e-17
Pressure gradient source: uncorrected Ubar = 1, pressure gradient = 0.00229059
smoothSolver:  Solving for omega, Initial residual = 0.00021059, Final residual = 1.92204e-05, No Iterations 5
smoothSolver:  Solving for k, Initial residual = 0.0167849, Final residual = 0.00134806, No Iterations 6
ExecutionTime = 0.229617 s  ClockTime = 0 s

Time = 89s

smoothSolver:  Solving for Ux, Initial residual = 0.00514886, Final residual = 0.000507478, No Iterations 5
smoothSolver:  Solving for Uy, Initial residual = 0.0409691, Final residual = 0.00235995, No Iterations 4
Pressure gradient source: uncorrected Ubar = 0.999989, pressure gradient = 0.00267635
[...]
Pressure gradient source: uncorrected Ubar = 1, pressure gradient = 0.00259394
smoothSolver:  Solving for omega, Initial residual = 8.22186e-06, Final residual = 8.22186e-06, No Iterations 0
smoothSolver:  Solving for k, Initial residual = 5.11071e-05, Final residual = 8.27289e-06, No Iterations 4
ExecutionTime = 1.23083 s  ClockTime = 1 s

Time = 562s

smoothSolver:  Solving for Ux, Initial residual = 2.90646e-06, Final residual = 2.90646e-06, No Iterations 0
smoothSolver:  Solving for Uy, Initial residual = 0.0241517, Final residual = 0.00214561, No Iterations 3
Pressure gradient source: uncorrected Ubar = 1, pressure gradient = 0.00259394
GAMG:  Solving for p, Initial residual = 0.00171391, Final residual = 0.000168945, No Iterations 4
time step continuity errors : sum local = 1.35091e-09, global = 5.10634e-18, cumulative = -1.71363e-16
Pressure gradient source: uncorrected Ubar = 1, pressure gradient = 0.00259392
smoothSolver:  Solving for omega, Initial residual = 8.23688e-06, Final residual = 8.23688e-06, No Iterations 0
smoothSolver:  Solving for k, Initial residual = 4.76257e-05, Final residual = 7.19107e-06, No Iterations 4
ExecutionTime = 1.23271 s  ClockTime = 1 s

Time = 563s

smoothSolver:  Solving for Ux, Initial residual = 2.77747e-06, Final residual = 2.77747e-06, No Iterations 0
smoothSolver:  Solving for Uy, Initial residual = 0.0182923, Final residual = 0.00151912, No Iterations 3
Pressure gradient source: uncorrected Ubar = 1, pressure gradient = 0.00259392
GAMG:  Solving for p, Initial residual = 0.00131251, Final residual = 0.000108118, No Iterations 6
time step continuity errors : sum local = 9.18128e-10, global = -4.26719e-18, cumulative = -1.7563e-16
Pressure gradient source: uncorrected Ubar = 1, pressure gradient = 0.0025939
smoothSolver:  Solving for omega, Initial residual = 8.25196e-06, Final residual = 8.25196e-06, No Iterations 0
smoothSolver:  Solving for k, Initial residual = 5.00832e-05, Final residual = 8.25019e-06, No Iterations 4
ExecutionTime = 1.23464 s  ClockTime = 1 s

Time = 564s

smoothSolver:  Solving for Ux, Initial residual = 2.64917e-06, Final residual = 2.64917e-06, No Iterations 0
smoothSolver:  Solving for Uy, Initial residual = 0.0222499, Final residual = 0.00193402, No Iterations 3
Pressure gradient source: uncorrected Ubar = 1, pressure gradient = 0.0025939
GAMG:  Solving for p, Initial residual = 0.00122394, Final residual = 0.000112175, No Iterations 6
time step continuity errors : sum local = 9.20774e-10, global = -2.52461e-18, cumulative = -1.78154e-16
Pressure gradient source: uncorrected Ubar = 1, pressure gradient = 0.00259388
smoothSolver:  Solving for omega, Initial residual = 8.26698e-06, Final residual = 8.26698e-06, No Iterations 0
smoothSolver:  Solving for k, Initial residual = 5.05885e-05, Final residual = 8.10243e-06, No Iterations 4
ExecutionTime = 1.23657 s  ClockTime = 1 s

Time = 565s

smoothSolver:  Solving for Ux, Initial residual = 2.5334e-06, Final residual = 2.5334e-06, No Iterations 0
smoothSolver:  Solving for Uy, Initial residual = 0.0244596, Final residual = 0.00209533, No Iterations 3
Pressure gradient source: uncorrected Ubar = 1, pressure gradient = 0.00259388
GAMG:  Solving for p, Initial residual = 0.001697, Final residual = 0.000151859, No Iterations 4
time step continuity errors : sum local = 1.24474e-09, global = -7.73455e-18, cumulative = -1.85889e-16
Pressure gradient source: uncorrected Ubar = 1, pressure gradient = 0.00259386
smoothSolver:  Solving for omega, Initial residual = 8.2821e-06, Final residual = 8.2821e-06, No Iterations 0
smoothSolver:  Solving for k, Initial residual = 4.72689e-05, Final residual = 6.84346e-06, No Iterations 4
ExecutionTime = 1.23844 s  ClockTime = 1 s

Time = 566s

smoothSolver:  Solving for Ux, Initial residual = 2.43837e-06, Final residual = 2.43837e-06, No Iterations 0
smoothSolver:  Solving for Uy, Initial residual = 0.0170175, Final residual = 0.00131352, No Iterations 3
Pressure gradient source: uncorrected Ubar = 1, pressure gradient = 0.00259386
GAMG:  Solving for p, Initial residual = 0.00129153, Final residual = 9.20578e-05, No Iterations 7
time step continuity errors : sum local = 8.13449e-10, global = 3.33707e-18, cumulative = -1.82552e-16
Pressure gradient source: uncorrected Ubar = 1, pressure gradient = 0.00259384
smoothSolver:  Solving for omega, Initial residual = 8.29739e-06, Final residual = 8.29739e-06, No Iterations 0
smoothSolver:  Solving for k, Initial residual = 4.90886e-05, Final residual = 8.18068e-06, No Iterations 4
ExecutionTime = 1.24051 s  ClockTime = 1 s

Time = 567s

smoothSolver:  Solving for Ux, Initial residual = 2.3318e-06, Final residual = 2.3318e-06, No Iterations 0
smoothSolver:  Solving for Uy, Initial residual = 0.0181945, Final residual = 0.00131745, No Iterations 3
Pressure gradient source: uncorrected Ubar = 1, pressure gradient = 0.00259384
GAMG:  Solving for p, Initial residual = 0.00125425, Final residual = 0.000119291, No Iterations 3
time step continuity errors : sum local = 1.01069e-09, global = -3.69989e-18, cumulative = -1.86252e-16
Pressure gradient source: uncorrected Ubar = 1, pressure gradient = 0.00259382
smoothSolver:  Solving for omega, Initial residual = 8.31246e-06, Final residual = 8.31246e-06, No Iterations 0
smoothSolver:  Solving for k, Initial residual = 4.97507e-05, Final residual = 8.3543e-06, No Iterations 4
ExecutionTime = 1.2426 s  ClockTime = 1 s

Time = 568s

smoothSolver:  Solving for Ux, Initial residual = 2.23255e-06, Final residual = 2.23255e-06, No Iterations 0
smoothSolver:  Solving for Uy, Initial residual = 0.0165063, Final residual = 0.00115648, No Iterations 3
Pressure gradient source: uncorrected Ubar = 1, pressure gradient = 0.00259382
GAMG:  Solving for p, Initial residual = 0.00119323, Final residual = 0.000116656, No Iterations 4
time step continuity errors : sum local = 9.5483e-10, global = -7.98233e-18, cumulative = -1.94234e-16
Pressure gradient source: uncorrected Ubar = 1, pressure gradient = 0.0025938
smoothSolver:  Solving for omega, Initial residual = 8.32796e-06, Final residual = 8.32796e-06, No Iterations 0
smoothSolver:  Solving for k, Initial residual = 4.72708e-05, Final residual = 7.43437e-06, No Iterations 4
ExecutionTime = 1.24462 s  ClockTime = 1 s

Time = 569s

smoothSolver:  Solving for Ux, Initial residual = 2.14496e-06, Final residual = 2.14496e-06, No Iterations 0
smoothSolver:  Solving for Uy, Initial residual = 0.0194941, Final residual = 0.00160802, No Iterations 3
Pressure gradient source: uncorrected Ubar = 1, pressure gradient = 0.0025938
GAMG:  Solving for p, Initial residual = 0.00129994, Final residual = 0.000124123, No Iterations 3
time step continuity errors : sum local = 1.06149e-09, global = 9.36348e-21, cumulative = -1.94225e-16
Pressure gradient source: uncorrected Ubar = 1, pressure gradient = 0.00259378
smoothSolver:  Solving for omega, Initial residual = 8.34328e-06, Final residual = 8.34328e-06, No Iterations 0
smoothSolver:  Solving for k, Initial residual = 4.73106e-05, Final residual = 6.82613e-06, No Iterations 4
ExecutionTime = 1.24657 s  ClockTime = 1 s

Time = 570s

smoothSolver:  Solving for Ux, Initial residual = 2.0576e-06, Final residual = 2.0576e-06, No Iterations 0
smoothSolver:  Solving for Uy, Initial residual = 0.0205197, Final residual = 0.00164947, No Iterations 3
Pressure gradient source: uncorrected Ubar = 1, pressure gradient = 0.00259378
GAMG:  Solving for p, Initial residual = 0.00134705, Final residual = 0.000122027, No Iterations 4
time step continuity errors : sum local = 1.03265e-09, global = 3.94962e-20, cumulative = -1.94185e-16
Pressure gradient source: uncorrected Ubar = 1, pressure gradient = 0.00259376
smoothSolver:  Solving for omega, Initial residual = 8.35912e-06, Final residual = 8.35912e-06, No Iterations 0
smoothSolver:  Solving for k, Initial residual = 5.02898e-05, Final residual = 8.88018e-06, No Iterations 4
ExecutionTime = 1.24849 s  ClockTime = 1 s

Time = 571s

smoothSolver:  Solving for Ux, Initial residual = 1.97309e-06, Final residual = 1.97309e-06, No Iterations 0
smoothSolver:  Solving for Uy, Initial residual = 0.0169612, Final residual = 0.00077706, No Iterations 4
Pressure gradient source: uncorrected Ubar = 1, pressure gradient = 0.00259376
GAMG:  Solving for p, Initial residual = 0.00102524, Final residual = 7.78504e-05, No Iterations 3
time step continuity errors : sum local = 6.37221e-10, global = 1.84561e-18, cumulative = -1.9234e-16
Pressure gradient source: uncorrected Ubar = 1, pressure gradient = 0.00259374
smoothSolver:  Solving for omega, Initial residual = 8.37482e-06, Final residual = 8.37482e-06, No Iterations 0
smoothSolver:  Solving for k, Initial residual = 4.66282e-05, Final residual = 7.70379e-06, No Iterations 4
ExecutionTime = 1.25041 s  ClockTime = 1 s

Time = 572s

smoothSolver:  Solving for Ux, Initial residual = 1.92253e-06, Final residual = 1.92253e-06, No Iterations 0
smoothSolver:  Solving for Uy, Initial residual = 0.0143721, Final residual = 0.00137751, No Iterations 3
Pressure gradient source: uncorrected Ubar = 1, pressure gradient = 0.00259374
GAMG:  Solving for p, Initial residual = 0.000973295, Final residual = 8.2997e-05, No Iterations 3
time step continuity errors : sum local = 6.56046e-10, global = 7.84532e-18, cumulative = -1.84494e-16
Pressure gradient source: uncorrected Ubar = 1, pressure gradient = 0.00259372
smoothSolver:  Solving for omega, Initial residual = 8.39051e-06, Final residual = 8.39051e-06, No Iterations 0
smoothSolver:  Solving for k, Initial residual = 4.75398e-05, Final residual = 7.86466e-06, No Iterations 4
ExecutionTime = 1.25225 s  ClockTime = 1 s

Time = 573s

smoothSolver:  Solving for Ux, Initial residual = 1.87943e-06, Final residual = 1.87943e-06, No Iterations 0
smoothSolver:  Solving for Uy, Initial residual = 0.0159521, Final residual = 0.00107839, No Iterations 3
Pressure gradient source: uncorrected Ubar = 1, pressure gradient = 0.00259372
GAMG:  Solving for p, Initial residual = 0.00119251, Final residual = 0.000109479, No Iterations 3
time step continuity errors : sum local = 8.58545e-10, global = -4.62426e-18, cumulative = -1.89119e-16
Pressure gradient source: uncorrected Ubar = 1, pressure gradient = 0.0025937
smoothSolver:  Solving for omega, Initial residual = 8.40649e-06, Final residual = 8.40649e-06, No Iterations 0
smoothSolver:  Solving for k, Initial residual = 4.8798e-05, Final residual = 8.64782e-06, No Iterations 4
ExecutionTime = 1.2541 s  ClockTime = 1 s

Time = 574s

smoothSolver:  Solving for Ux, Initial residual = 1.83967e-06, Final residual = 1.83967e-06, No Iterations 0
smoothSolver:  Solving for Uy, Initial residual = 0.0135338, Final residual = 0.00108648, No Iterations 3
Pressure gradient source: uncorrected Ubar = 1, pressure gradient = 0.0025937
GAMG:  Solving for p, Initial residual = 0.00108143, Final residual = 7.04688e-05, No Iterations 4
time step continuity errors : sum local = 5.71761e-10, global = -6.39519e-18, cumulative = -1.95514e-16
Pressure gradient source: uncorrected Ubar = 1, pressure gradient = 0.00259368
smoothSolver:  Solving for omega, Initial residual = 8.4224e-06, Final residual = 8.4224e-06, No Iterations 0
smoothSolver:  Solving for k, Initial residual = 4.71831e-05, Final residual = 7.7573e-06, No Iterations 4
ExecutionTime = 1.25604 s  ClockTime = 1 s

Time = 575s

smoothSolver:  Solving for Ux, Initial residual = 1.81963e-06, Final residual = 1.81963e-06, No Iterations 0
smoothSolver:  Solving for Uy, Initial residual = 0.0127911, Final residual = 0.000903665, No Iterations 3
Pressure gradient source: uncorrected Ubar = 1, pressure gradient = 0.00259368
GAMG:  Solving for p, Initial residual = 0.00106529, Final residual = 0.000101752, No Iterations 3
time step continuity errors : sum local = 8.03687e-10, global = -9.22403e-18, cumulative = -2.04738e-16
Pressure gradient source: uncorrected Ubar = 1, pressure gradient = 0.00259366
smoothSolver:  Solving for omega, Initial residual = 8.43876e-06, Final residual = 8.43876e-06, No Iterations 0
smoothSolver:  Solving for k, Initial residual = 4.65374e-05, Final residual = 7.56303e-06, No Iterations 4
ExecutionTime = 1.258 s  ClockTime = 1 s

Time = 576s

smoothSolver:  Solving for Ux, Initial residual = 1.81645e-06, Final residual = 1.81645e-06, No Iterations 0
smoothSolver:  Solving for Uy, Initial residual = 0.0224821, Final residual = 0.00208636, No Iterations 3
Pressure gradient source: uncorrected Ubar = 1, pressure gradient = 0.00259366
GAMG:  Solving for p, Initial residual = 0.00148111, Final residual = 9.35182e-05, No Iterations 4
time step continuity errors : sum local = 7.58413e-10, global = 1.96357e-18, cumulative = -2.02774e-16
Pressure gradient source: uncorrected Ubar = 1, pressure gradient = 0.00259364
smoothSolver:  Solving for omega, Initial residual = 8.45492e-06, Final residual = 8.45492e-06, No Iterations 0
smoothSolver:  Solving for k, Initial residual = 4.21902e-05, Final residual = 9.16428e-06, No Iterations 3
ExecutionTime = 1.26004 s  ClockTime = 1 s

Time = 577s

smoothSolver:  Solving for Ux, Initial residual = 1.82731e-06, Final residual = 1.82731e-06, No Iterations 0
smoothSolver:  Solving for Uy, Initial residual = 0.0130492, Final residual = 0.000810475, No Iterations 3
Pressure gradient source: uncorrected Ubar = 1, pressure gradient = 0.00259364
GAMG:  Solving for p, Initial residual = 0.00120449, Final residual = 9.58212e-05, No Iterations 4
time step continuity errors : sum local = 7.71275e-10, global = -2.05958e-18, cumulative = -2.04834e-16
Pressure gradient source: uncorrected Ubar = 1, pressure gradient = 0.00259362
smoothSolver:  Solving for omega, Initial residual = 8.47134e-06, Final residual = 8.47134e-06, No Iterations 0
smoothSolver:  Solving for k, Initial residual = 4.78644e-05, Final residual = 8.85932e-06, No Iterations 4
ExecutionTime = 1.26204 s  ClockTime = 1 s

Time = 578s

smoothSolver:  Solving for Ux, Initial residual = 1.88124e-06, Final residual = 1.88124e-06, No Iterations 0
smoothSolver:  Solving for Uy, Initial residual = 0.0182444, Final residual = 0.000920489, No Iterations 4
Pressure gradient source: uncorrected Ubar = 1, pressure gradient = 0.00259362
GAMG:  Solving for p, Initial residual = 0.000983345, Final residual = 6.99519e-05, No Iterations 11
time step continuity errors : sum local = 6.71098e-10, global = 6.56851e-18, cumulative = -1.98265e-16
Pressure gradient source: uncorrected Ubar = 1, pressure gradient = 0.0025936
smoothSolver:  Solving for omega, Initial residual = 8.48751e-06, Final residual = 8.48751e-06, No Iterations 0
smoothSolver:  Solving for k, Initial residual = 4.7693e-05, Final residual = 8.24783e-06, No Iterations 4
ExecutionTime = 1.26423 s  ClockTime = 1 s

Time = 579s

smoothSolver:  Solving for Ux, Initial residual = 1.91636e-06, Final residual = 1.91636e-06, No Iterations 0
smoothSolver:  Solving for Uy, Initial residual = 0.0140125, Final residual = 0.00112789, No Iterations 3
Pressure gradient source: uncorrected Ubar = 1, pressure gradient = 0.0025936
GAMG:  Solving for p, Initial residual = 0.000965799, Final residual = 9.63918e-05, No Iterations 6
time step continuity errors : sum local = 7.57018e-10, global = 7.88192e-18, cumulative = -1.90383e-16
Pressure gradient source: uncorrected Ubar = 1, pressure gradient = 0.00259357
smoothSolver:  Solving for omega, Initial residual = 8.5039e-06, Final residual = 8.5039e-06, No Iterations 0
smoothSolver:  Solving for k, Initial residual = 4.31047e-05, Final residual = 6.38835e-06, No Iterations 4
ExecutionTime = 1.26619 s  ClockTime = 1 s

Time = 580s

smoothSolver:  Solving for Ux, Initial residual = 1.95919e-06, Final residual = 1.95919e-06, No Iterations 0
smoothSolver:  Solving for Uy, Initial residual = 0.0173449, Final residual = 0.00165506, No Iterations 3
Pressure gradient source: uncorrected Ubar = 1, pressure gradient = 0.00259357
GAMG:  Solving for p, Initial residual = 0.00118321, Final residual = 0.000102525, No Iterations 6
time step continuity errors : sum local = 8.40609e-10, global = 1.0674e-17, cumulative = -1.79709e-16
Pressure gradient source: uncorrected Ubar = 1, pressure gradient = 0.00259355
smoothSolver:  Solving for omega, Initial residual = 8.52007e-06, Final residual = 8.52007e-06, No Iterations 0
smoothSolver:  Solving for k, Initial residual = 4.52646e-05, Final residual = 7.78167e-06, No Iterations 4
ExecutionTime = 1.26812 s  ClockTime = 1 s

Time = 581s

smoothSolver:  Solving for Ux, Initial residual = 2.03032e-06, Final residual = 2.03032e-06, No Iterations 0
smoothSolver:  Solving for Uy, Initial residual = 0.0182238, Final residual = 0.00169366, No Iterations 3
Pressure gradient source: uncorrected Ubar = 1, pressure gradient = 0.00259355
GAMG:  Solving for p, Initial residual = 0.00104985, Final residual = 9.48923e-05, No Iterations 10
time step continuity errors : sum local = 7.33944e-10, global = -5.28106e-18, cumulative = -1.84991e-16
Pressure gradient source: uncorrected Ubar = 1, pressure gradient = 0.00259353
smoothSolver:  Solving for omega, Initial residual = 8.53632e-06, Final residual = 8.53632e-06, No Iterations 0
smoothSolver:  Solving for k, Initial residual = 4.53424e-05, Final residual = 7.75041e-06, No Iterations 4
ExecutionTime = 1.27019 s  ClockTime = 1 s

Time = 582s

smoothSolver:  Solving for Ux, Initial residual = 2.08367e-06, Final residual = 2.08367e-06, No Iterations 0
smoothSolver:  Solving for Uy, Initial residual = 0.0144518, Final residual = 0.00115221, No Iterations 3
Pressure gradient source: uncorrected Ubar = 1, pressure gradient = 0.00259353
GAMG:  Solving for p, Initial residual = 0.00114969, Final residual = 0.000106466, No Iterations 5
time step continuity errors : sum local = 9.00191e-10, global = 6.39674e-18, cumulative = -1.78594e-16
Pressure gradient source: uncorrected Ubar = 1, pressure gradient = 0.00259351
smoothSolver:  Solving for omega, Initial residual = 8.55261e-06, Final residual = 8.55261e-06, No Iterations 0
smoothSolver:  Solving for k, Initial residual = 4.30513e-05, Final residual = 6.62119e-06, No Iterations 4
ExecutionTime = 1.27212 s  ClockTime = 1 s

Time = 583s

smoothSolver:  Solving for Ux, Initial residual = 2.14063e-06, Final residual = 2.14063e-06, No Iterations 0
smoothSolver:  Solving for Uy, Initial residual = 0.0197295, Final residual = 0.00187223, No Iterations 3
Pressure gradient source: uncorrected Ubar = 1, pressure gradient = 0.00259351
GAMG:  Solving for p, Initial residual = 0.00123876, Final residual = 0.000119746, No Iterations 6
time step continuity errors : sum local = 9.56441e-10, global = -3.6423e-18, cumulative = -1.82236e-16
Pressure gradient source: uncorrected Ubar = 1, pressure gradient = 0.00259349
smoothSolver:  Solving for omega, Initial residual = 8.56913e-06, Final residual = 8.56913e-06, No Iterations 0
smoothSolver:  Solving for k, Initial residual = 4.37113e-05, Final residual = 6.78471e-06, No Iterations 4
ExecutionTime = 1.27418 s  ClockTime = 1 s

Time = 584s

smoothSolver:  Solving for Ux, Initial residual = 2.21245e-06, Final residual = 2.21245e-06, No Iterations 0
smoothSolver:  Solving for Uy, Initial residual = 0.00992149, Final residual = 0.000578143, No Iterations 3
Pressure gradient source: uncorrected Ubar = 1, pressure gradient = 0.00259349
GAMG:  Solving for p, Initial residual = 0.000811022, Final residual = 7.55451e-05, No Iterations 8
time step continuity errors : sum local = 6.93107e-10, global = -1.15652e-17, cumulative = -1.93801e-16
Pressure gradient source: uncorrected Ubar = 1, pressure gradient = 0.00259347
smoothSolver:  Solving for omega, Initial residual = 8.58556e-06, Final residual = 8.58556e-06, No Iterations 0
smoothSolver:  Solving for k, Initial residual = 4.31612e-05, Final residual = 7.15925e-06, No Iterations 4
ExecutionTime = 1.27641 s  ClockTime = 1 s


SIMPLE solution converged in 584 iterations

End

