/*---------------------------------------------------------------------------*\
  =========                 |
  \\      /  F ield         | OpenFOAM: The Open Source CFD Toolbox
   \\    /   O peration     | Website:  https://openfoam.org
    \\  /    A nd           | Version:  10
     \\/     M anipulation  |
\*---------------------------------------------------------------------------*/
Build  : 10-e450dce21ea5
Exec   : blockMesh
Date   : Feb 20 2023
Time   : 14:14:54
Host   : "w530-R9YK46P"
PID    : 18836
I/O    : uncollated
Case   : /home/jdmezazeron/gitDanielMezaZ/turbulenceVisualized/Data/SimulationFiles/K29_Re2662
nProcs : 1
sigFpe : Enabling floating point exception trapping (FOAM_SIGFPE).
fileModificationChecking : Monitoring run-time modified files using timeStampMaster (fileModificationSkew 10)
allowSystemOperations : Allowing user-supplied system call operations

// * * * * * * * * * * * * * * * * * * * * * * * * * * * * * * * * * * * * * //
Create time

Deleting polyMesh directory
    "/home/jdmezazeron/gitDanielMezaZ/turbulenceVisualized/Data/SimulationFiles/K29_Re2662/constant/polyMesh"
Reading "blockMeshDict"

Creating block mesh from
    "system/blockMeshDict"
Creating block edges
No non-planar block faces defined
Creating topology blocks
Creating topology patches

Creating block mesh topology

Check topology

	Basic statistics
		Number of internal faces : 0
		Number of boundary faces : 6
		Number of defined boundary faces : 6
		Number of undefined boundary faces : 0
	Checking patch -> block consistency

Creating block offsets
Creating merge list .

Creating polyMesh from blockMesh
Creating patches
Creating cells
Creating points with scale 1
    Block 0 cell size :
        i : 0.5
        j : 0.00461374 .. 0.018455
        k : 2

Detected cyclic patches; ordering boundary faces

Writing polyMesh
----------------
Mesh Information
----------------
  boundingBox: (-1 0 -1) (1 1 1)
  nPoints: 1010
  nCells: 400
  nFaces: 1704
  nInternalFaces: 696
----------------
Patches
----------------
  patch 0 (start: 696 size: 100) name: inlet
  patch 1 (start: 796 size: 100) name: outlet
  patch 2 (start: 896 size: 4) name: fixedWalls-bottom
  patch 3 (start: 900 size: 4) name: fixedWalls-top
  patch 4 (start: 904 size: 800) name: frontAndBack

End

/*---------------------------------------------------------------------------*\
  =========                 |
  \\      /  F ield         | OpenFOAM: The Open Source CFD Toolbox
   \\    /   O peration     | Website:  https://openfoam.org
    \\  /    A nd           | Version:  10
     \\/     M anipulation  |
\*---------------------------------------------------------------------------*/
Build  : 10-e450dce21ea5
Exec   : simpleFoam
Date   : Feb 20 2023
Time   : 14:14:54
Host   : "w530-R9YK46P"
PID    : 18837
I/O    : uncollated
Case   : /home/jdmezazeron/gitDanielMezaZ/turbulenceVisualized/Data/SimulationFiles/K29_Re2662
nProcs : 1
sigFpe : Enabling floating point exception trapping (FOAM_SIGFPE).
fileModificationChecking : Monitoring run-time modified files using timeStampMaster (fileModificationSkew 10)
allowSystemOperations : Allowing user-supplied system call operations

// * * * * * * * * * * * * * * * * * * * * * * * * * * * * * * * * * * * * * //
Create time

Create mesh for time = 0


SIMPLE: Convergence criteria found
        U: tolerance 0.0001
        p: tolerance 0.01
        omega: tolerance 0.0001

Reading field p

Reading field U

Reading/calculating face flux field phi

Selecting viscosity model Newtonian
Selecting turbulence model type RAS
Selecting RAS turbulence model kOmegaSST
Selecting patchDistMethod meshWave
RAS
{
    RASModel        kOmegaSST;
    turbulence      on;
    printCoeffs     on;
    alphaK1         0.85;
    alphaK2         1;
    alphaOmega1     0.5;
    alphaOmega2     0.856;
    gamma1          0.555556;
    gamma2          0.44;
    beta1           0.075;
    beta2           0.0828;
    betaStar        0.09;
    a1              0.31;
    b1              1;
    c1              10;
    F3              false;
}

No MRF models present

--> FOAM Warning : Creating fvModels from "system/fvOptions" rather than constant/fvModels
No fvModels present
--> FOAM Warning : Creating fvConstraints from "system/fvOptions"

Selecting finite volume constraint type meanVelocityForce
    Name: momentumSource
    - selecting all cells
    - selected 400 cell(s) with volume 4
    Initial pressure gradient = 0


Starting time loop

turbulenceFields stressComponents: storing fields:
    R

Time = 1s

smoothSolver:  Solving for Ux, Initial residual = 0, Final residual = 0, No Iterations 0
smoothSolver:  Solving for Uy, Initial residual = 0, Final residual = 0, No Iterations 0
Pressure gradient source: uncorrected Ubar = 0, pressure gradient = 1216.69
GAMG:  Solving for p, Initial residual = 0.999996, Final residual = 0.0502135, No Iterations 3
time step continuity errors : sum local = 7.50722e-17, global = 2.7475e-18, cumulative = 2.7475e-18
Pressure gradient source: uncorrected Ubar = 0.884653, pressure gradient = 140.342
smoothSolver:  Solving for omega, Initial residual = 0.22603, Final residual = 0.013657, No Iterations 3
smoothSolver:  Solving for k, Initial residual = 1, Final residual = 0.0703786, No Iterations 3
ExecutionTime = 0.014061 s  ClockTime = 0 s

Time = 2s

smoothSolver:  Solving for Ux, Initial residual = 0.991306, Final residual = 0.0927903, No Iterations 6
smoothSolver:  Solving for Uy, Initial residual = 1, Final residual = 0.0900898, No Iterations 5
Pressure gradient source: uncorrected Ubar = 49.5108, pressure gradient = -1043.78
GAMG:  Solving for p, Initial residual = 1, Final residual = 0.0981313, No Iterations 14
time step continuity errors : sum local = 0.0424272, global = -1.60462e-17, cumulative = -1.32987e-17
Pressure gradient source: uncorrected Ubar = 7.28387, pressure gradient = -13.0444
smoothSolver:  Solving for omega, Initial residual = 0.189619, Final residual = 0.00135727, No Iterations 1
smoothSolver:  Solving for k, Initial residual = 0.962767, Final residual = 0.0615905, No Iterations 1
ExecutionTime = 0.017094 s  ClockTime = 0 s

Time = 3s

smoothSolver:  Solving for Ux, Initial residual = 0.444758, Final residual = 0.0370473, No Iterations 6
smoothSolver:  Solving for Uy, Initial residual = 0.59225, Final residual = 0.0354458, No Iterations 2
Pressure gradient source: uncorrected Ubar = -1.56444, pressure gradient = 98.2055
GAMG:  Solving for p, Initial residual = 0.221638, Final residual = 0.0207767, No Iterations 6
time step continuity errors : sum local = 0.0176122, global = -2.48147e-17, cumulative = -3.81134e-17
Pressure gradient source: uncorrected Ubar = 0.641373, pressure gradient = 2.5134
smoothSolver:  Solving for omega, Initial residual = 0.0106928, Final residual = 0.00053275, No Iterations 1
smoothSolver:  Solving for k, Initial residual = 0.447262, Final residual = 0.0195628, No Iterations 2
ExecutionTime = 0.019657 s  ClockTime = 0 s

Time = 4s

smoothSolver:  Solving for Ux, Initial residual = 0.133694, Final residual = 0.00959632, No Iterations 5
smoothSolver:  Solving for Uy, Initial residual = 0.382214, Final residual = 0.0378023, No Iterations 2
Pressure gradient source: uncorrected Ubar = 1.4521, pressure gradient = -11.3148
GAMG:  Solving for p, Initial residual = 0.140595, Final residual = 0.0122869, No Iterations 11
time step continuity errors : sum local = 0.0216839, global = 4.41169e-17, cumulative = 6.0035e-18
Pressure gradient source: uncorrected Ubar = 1.06004, pressure gradient = 0.676927
smoothSolver:  Solving for omega, Initial residual = 0.00847151, Final residual = 0.00057298, No Iterations 1
smoothSolver:  Solving for k, Initial residual = 0.603508, Final residual = 0.0515905, No Iterations 2
ExecutionTime = 0.022435 s  ClockTime = 0 s

Time = 5s

smoothSolver:  Solving for Ux, Initial residual = 0.101748, Final residual = 0.00776265, No Iterations 4
smoothSolver:  Solving for Uy, Initial residual = 0.607811, Final residual = 0.0503587, No Iterations 2
Pressure gradient source: uncorrected Ubar = 0.97736, pressure gradient = 1.43816
GAMG:  Solving for p, Initial residual = 0.19707, Final residual = 0.0183439, No Iterations 11
time step continuity errors : sum local = 0.0282411, global = -1.37355e-17, cumulative = -7.73199e-18
Pressure gradient source: uncorrected Ubar = 0.995595, pressure gradient = 0.825054
smoothSolver:  Solving for omega, Initial residual = 0.00905127, Final residual = 0.000362521, No Iterations 2
smoothSolver:  Solving for k, Initial residual = 0.69766, Final residual = 0.0123808, No Iterations 2
ExecutionTime = 0.02521 s  ClockTime = 0 s

Time = 6s

smoothSolver:  Solving for Ux, Initial residual = 0.0841975, Final residual = 0.00539109, No Iterations 4
smoothSolver:  Solving for Uy, Initial residual = 0.628662, Final residual = 0.0571546, No Iterations 2
Pressure gradient source: uncorrected Ubar = 0.947743, pressure gradient = 2.77475
GAMG:  Solving for p, Initial residual = 0.387241, Final residual = 0.0346858, No Iterations 10
time step continuity errors : sum local = 0.044779, global = 5.04696e-17, cumulative = 4.27376e-17
Pressure gradient source: uncorrected Ubar = 0.991325, pressure gradient = 1.14872
smoothSolver:  Solving for omega, Initial residual = 0.015628, Final residual = 0.000549608, No Iterations 2
bounding omega, min: -2.08427 max: 11292.7 average: 196.496
smoothSolver:  Solving for k, Initial residual = 0.409318, Final residual = 0.00976828, No Iterations 2
ExecutionTime = 0.028073 s  ClockTime = 0 s

Time = 7s

smoothSolver:  Solving for Ux, Initial residual = 0.0600557, Final residual = 0.00461202, No Iterations 4
smoothSolver:  Solving for Uy, Initial residual = 0.464211, Final residual = 0.0173491, No Iterations 3
Pressure gradient source: uncorrected Ubar = 0.946492, pressure gradient = 3.36301
GAMG:  Solving for p, Initial residual = 0.337194, Final residual = 0.0315145, No Iterations 10
time step continuity errors : sum local = 0.0458425, global = 1.23701e-17, cumulative = 5.51077e-17
Pressure gradient source: uncorrected Ubar = 0.996254, pressure gradient = 1.30374
smoothSolver:  Solving for omega, Initial residual = 0.015529, Final residual = 0.000511604, No Iterations 2
smoothSolver:  Solving for k, Initial residual = 0.237608, Final residual = 0.00886985, No Iterations 2
ExecutionTime = 0.03098 s  ClockTime = 0 s

Time = 8s

smoothSolver:  Solving for Ux, Initial residual = 0.0652746, Final residual = 0.00515022, No Iterations 4
smoothSolver:  Solving for Uy, Initial residual = 0.441797, Final residual = 0.0178043, No Iterations 3
Pressure gradient source: uncorrected Ubar = 0.977136, pressure gradient = 2.37408
GAMG:  Solving for p, Initial residual = 0.26851, Final residual = 0.0250368, No Iterations 10
time step continuity errors : sum local = 0.0530397, global = -1.59378e-17, cumulative = 3.91699e-17
Pressure gradient source: uncorrected Ubar = 1.00051, pressure gradient = 1.27984
smoothSolver:  Solving for omega, Initial residual = 0.0104129, Final residual = 0.000517566, No Iterations 2
smoothSolver:  Solving for k, Initial residual = 0.204766, Final residual = 0.0151748, No Iterations 2
ExecutionTime = 0.033801 s  ClockTime = 0 s

Time = 9s

smoothSolver:  Solving for Ux, Initial residual = 0.0462323, Final residual = 0.00350241, No Iterations 4
smoothSolver:  Solving for Uy, Initial residual = 0.469012, Final residual = 0.020931, No Iterations 3
Pressure gradient source: uncorrected Ubar = 0.918295, pressure gradient = 6.09061
GAMG:  Solving for p, Initial residual = 0.293021, Final residual = 0.0200835, No Iterations 7
time step continuity errors : sum local = 0.045688, global = -7.96889e-18, cumulative = 3.1201e-17
Pressure gradient source: uncorrected Ubar = 0.986503, pressure gradient = 2.07453
smoothSolver:  Solving for omega, Initial residual = 0.00672647, Final residual = 0.000358059, No Iterations 2
smoothSolver:  Solving for k, Initial residual = 0.173859, Final residual = 0.00877749, No Iterations 3
ExecutionTime = 0.036405 s  ClockTime = 0 s

Time = 10s

smoothSolver:  Solving for Ux, Initial residual = 0.0352591, Final residual = 0.00313535, No Iterations 4
smoothSolver:  Solving for Uy, Initial residual = 0.399763, Final residual = 0.0176857, No Iterations 3
Pressure gradient source: uncorrected Ubar = 0.979051, pressure gradient = 3.45601
GAMG:  Solving for p, Initial residual = 0.327567, Final residual = 0.0291418, No Iterations 10
time step continuity errors : sum local = 0.0469855, global = 6.21282e-17, cumulative = 9.33292e-17
Pressure gradient source: uncorrected Ubar = 0.995227, pressure gradient = 2.38928
smoothSolver:  Solving for omega, Initial residual = 0.0061227, Final residual = 0.000549724, No Iterations 2
smoothSolver:  Solving for k, Initial residual = 0.128498, Final residual = 0.00998999, No Iterations 3
ExecutionTime = 0.039198 s  ClockTime = 0 s

Time = 11s

smoothSolver:  Solving for Ux, Initial residual = 0.0277039, Final residual = 0.00266426, No Iterations 4
smoothSolver:  Solving for Uy, Initial residual = 0.404448, Final residual = 0.0227903, No Iterations 3
Pressure gradient source: uncorrected Ubar = 0.978146, pressure gradient = 4.01709
GAMG:  Solving for p, Initial residual = 0.262189, Final residual = 0.0227913, No Iterations 7
time step continuity errors : sum local = 0.0441377, global = -1.20922e-17, cumulative = 8.1237e-17
Pressure gradient source: uncorrected Ubar = 0.997259, pressure gradient = 2.59349
smoothSolver:  Solving for omega, Initial residual = 0.005657, Final residual = 0.000307232, No Iterations 3
smoothSolver:  Solving for k, Initial residual = 0.105092, Final residual = 0.00576032, No Iterations 4
ExecutionTime = 0.04188 s  ClockTime = 0 s

Time = 12s

smoothSolver:  Solving for Ux, Initial residual = 0.0229444, Final residual = 0.00149947, No Iterations 5
smoothSolver:  Solving for Uy, Initial residual = 0.42196, Final residual = 0.0246993, No Iterations 3
Pressure gradient source: uncorrected Ubar = 0.979573, pressure gradient = 4.27129
GAMG:  Solving for p, Initial residual = 0.193652, Final residual = 0.0131322, No Iterations 9
time step continuity errors : sum local = 0.0324942, global = -3.32842e-17, cumulative = 4.79528e-17
Pressure gradient source: uncorrected Ubar = 0.999148, pressure gradient = 2.66346
smoothSolver:  Solving for omega, Initial residual = 0.00462846, Final residual = 0.00037746, No Iterations 3
smoothSolver:  Solving for k, Initial residual = 0.0847273, Final residual = 0.00605653, No Iterations 4
ExecutionTime = 0.04462 s  ClockTime = 0 s

Time = 13s

smoothSolver:  Solving for Ux, Initial residual = 0.0199176, Final residual = 0.00131392, No Iterations 5
smoothSolver:  Solving for Uy, Initial residual = 0.321441, Final residual = 0.0225515, No Iterations 3
Pressure gradient source: uncorrected Ubar = 0.97441, pressure gradient = 5.01795
GAMG:  Solving for p, Initial residual = 0.16482, Final residual = 0.0144168, No Iterations 8
time step continuity errors : sum local = 0.03153, global = -1.72947e-17, cumulative = 3.06581e-17
Pressure gradient source: uncorrected Ubar = 0.997794, pressure gradient = 2.86644
smoothSolver:  Solving for omega, Initial residual = 0.00452253, Final residual = 0.000396337, No Iterations 3
smoothSolver:  Solving for k, Initial residual = 0.0699746, Final residual = 0.00590501, No Iterations 4
ExecutionTime = 0.047351 s  ClockTime = 0 s

Time = 14s

smoothSolver:  Solving for Ux, Initial residual = 0.0178222, Final residual = 0.0011966, No Iterations 5
smoothSolver:  Solving for Uy, Initial residual = 0.379741, Final residual = 0.0237577, No Iterations 3
Pressure gradient source: uncorrected Ubar = 0.98766, pressure gradient = 4.1268
GAMG:  Solving for p, Initial residual = 0.193637, Final residual = 0.0193196, No Iterations 10
time step continuity errors : sum local = 0.0251671, global = -1.16213e-17, cumulative = 1.90368e-17
Pressure gradient source: uncorrected Ubar = 0.998768, pressure gradient = 2.99225
smoothSolver:  Solving for omega, Initial residual = 0.00470947, Final residual = 0.000431168, No Iterations 3
smoothSolver:  Solving for k, Initial residual = 0.0602508, Final residual = 0.00357393, No Iterations 5
ExecutionTime = 0.050165 s  ClockTime = 0 s

Time = 15s

smoothSolver:  Solving for Ux, Initial residual = 0.0161789, Final residual = 0.00110782, No Iterations 5
smoothSolver:  Solving for Uy, Initial residual = 0.328815, Final residual = 0.0285491, No Iterations 3
Pressure gradient source: uncorrected Ubar = 0.992461, pressure gradient = 3.85122
GAMG:  Solving for p, Initial residual = 0.290616, Final residual = 0.0268084, No Iterations 7
time step continuity errors : sum local = 0.0272801, global = 5.46675e-18, cumulative = 2.45035e-17
Pressure gradient source: uncorrected Ubar = 0.998885, pressure gradient = 3.11929
smoothSolver:  Solving for omega, Initial residual = 0.0042539, Final residual = 0.000248116, No Iterations 4
smoothSolver:  Solving for k, Initial residual = 0.0526211, Final residual = 0.00337594, No Iterations 5
ExecutionTime = 0.052828 s  ClockTime = 0 s

Time = 16s

smoothSolver:  Solving for Ux, Initial residual = 0.0147477, Final residual = 0.00103515, No Iterations 5
smoothSolver:  Solving for Uy, Initial residual = 0.29977, Final residual = 0.0257224, No Iterations 3
Pressure gradient source: uncorrected Ubar = 0.997969, pressure gradient = 3.37596
GAMG:  Solving for p, Initial residual = 0.199479, Final residual = 0.0163528, No Iterations 11
time step continuity errors : sum local = 0.0227503, global = 6.57577e-17, cumulative = 9.02613e-17
Pressure gradient source: uncorrected Ubar = 0.999552, pressure gradient = 3.17592
smoothSolver:  Solving for omega, Initial residual = 0.00400147, Final residual = 0.000260204, No Iterations 4
smoothSolver:  Solving for k, Initial residual = 0.0466668, Final residual = 0.00332437, No Iterations 5
ExecutionTime = 0.055709 s  ClockTime = 0 s

Time = 17s

smoothSolver:  Solving for Ux, Initial residual = 0.013633, Final residual = 0.000973278, No Iterations 5
smoothSolver:  Solving for Uy, Initial residual = 0.246024, Final residual = 0.0205163, No Iterations 3
Pressure gradient source: uncorrected Ubar = 0.999628, pressure gradient = 3.22803
GAMG:  Solving for p, Initial residual = 0.103785, Final residual = 0.00964954, No Iterations 9
time step continuity errors : sum local = 0.0224234, global = -3.42896e-17, cumulative = 5.59717e-17
Pressure gradient source: uncorrected Ubar = 0.999627, pressure gradient = 3.22813
smoothSolver:  Solving for omega, Initial residual = 0.00383201, Final residual = 0.000274999, No Iterations 4
smoothSolver:  Solving for k, Initial residual = 0.0418301, Final residual = 0.0032799, No Iterations 5
ExecutionTime = 0.058499 s  ClockTime = 0 s

Time = 18s

smoothSolver:  Solving for Ux, Initial residual = 0.0127735, Final residual = 0.000928433, No Iterations 5
smoothSolver:  Solving for Uy, Initial residual = 0.171093, Final residual = 0.00870286, No Iterations 4
Pressure gradient source: uncorrected Ubar = 1.00248, pressure gradient = 2.8474
GAMG:  Solving for p, Initial residual = 0.0764346, Final residual = 0.00744209, No Iterations 8
time step continuity errors : sum local = 0.0212946, global = -1.08556e-17, cumulative = 4.51161e-17
Pressure gradient source: uncorrected Ubar = 1.00036, pressure gradient = 3.17246
smoothSolver:  Solving for omega, Initial residual = 0.00367275, Final residual = 0.000280234, No Iterations 4
smoothSolver:  Solving for k, Initial residual = 0.0379048, Final residual = 0.00317504, No Iterations 5
ExecutionTime = 0.0612 s  ClockTime = 0 s

Time = 19s

smoothSolver:  Solving for Ux, Initial residual = 0.0120406, Final residual = 0.000885953, No Iterations 5
smoothSolver:  Solving for Uy, Initial residual = 0.139672, Final residual = 0.00794299, No Iterations 4
Pressure gradient source: uncorrected Ubar = 1.00243, pressure gradient = 2.76835
GAMG:  Solving for p, Initial residual = 0.0654876, Final residual = 0.00535675, No Iterations 9
time step continuity errors : sum local = 0.0143014, global = -6.12744e-17, cumulative = -1.61583e-17
Pressure gradient source: uncorrected Ubar = 1.00027, pressure gradient = 3.12674
smoothSolver:  Solving for omega, Initial residual = 0.00365007, Final residual = 0.000287512, No Iterations 4
smoothSolver:  Solving for k, Initial residual = 0.0347943, Final residual = 0.00315685, No Iterations 5
ExecutionTime = 0.063956 s  ClockTime = 0 s

Time = 20s

smoothSolver:  Solving for Ux, Initial residual = 0.0113921, Final residual = 0.000848665, No Iterations 5
smoothSolver:  Solving for Uy, Initial residual = 0.137303, Final residual = 0.00844848, No Iterations 4
Pressure gradient source: uncorrected Ubar = 1.00414, pressure gradient = 2.38355
GAMG:  Solving for p, Initial residual = 0.0510876, Final residual = 0.00504727, No Iterations 9
time step continuity errors : sum local = 0.0110945, global = 1.58412e-17, cumulative = -3.17058e-19
Pressure gradient source: uncorrected Ubar = 1.00062, pressure gradient = 3.01616
smoothSolver:  Solving for omega, Initial residual = 0.0033713, Final residual = 0.000277362, No Iterations 4
smoothSolver:  Solving for k, Initial residual = 0.0317711, Final residual = 0.00301202, No Iterations 5
ExecutionTime = 0.066728 s  ClockTime = 0 s

Time = 21s

smoothSolver:  Solving for Ux, Initial residual = 0.0108302, Final residual = 0.000815763, No Iterations 5
smoothSolver:  Solving for Uy, Initial residual = 0.125965, Final residual = 0.00998755, No Iterations 4
Pressure gradient source: uncorrected Ubar = 1.00411, pressure gradient = 2.22649
GAMG:  Solving for p, Initial residual = 0.0580651, Final residual = 0.00577388, No Iterations 9
time step continuity errors : sum local = 0.00847429, global = 3.3523e-17, cumulative = 3.3206e-17
Pressure gradient source: uncorrected Ubar = 1.00057, pressure gradient = 2.90678
smoothSolver:  Solving for omega, Initial residual = 0.00322447, Final residual = 0.000300361, No Iterations 4
smoothSolver:  Solving for k, Initial residual = 0.0291187, Final residual = 0.00287848, No Iterations 5
ExecutionTime = 0.069496 s  ClockTime = 0 s

Time = 22s

smoothSolver:  Solving for Ux, Initial residual = 0.0103363, Final residual = 0.00078725, No Iterations 5
smoothSolver:  Solving for Uy, Initial residual = 0.137689, Final residual = 0.0118131, No Iterations 4
Pressure gradient source: uncorrected Ubar = 1.004, pressure gradient = 2.09716
GAMG:  Solving for p, Initial residual = 0.0692336, Final residual = 0.00641194, No Iterations 10
time step continuity errors : sum local = 0.00753501, global = 1.30036e-17, cumulative = 4.62096e-17
Pressure gradient source: uncorrected Ubar = 1.00055, pressure gradient = 2.79585
smoothSolver:  Solving for omega, Initial residual = 0.00295946, Final residual = 0.000277279, No Iterations 4
smoothSolver:  Solving for k, Initial residual = 0.0264391, Final residual = 0.00169894, No Iterations 6
ExecutionTime = 0.072316 s  ClockTime = 0 s

Time = 23s

smoothSolver:  Solving for Ux, Initial residual = 0.00990586, Final residual = 0.000761485, No Iterations 5
smoothSolver:  Solving for Uy, Initial residual = 0.140162, Final residual = 0.0121619, No Iterations 4
Pressure gradient source: uncorrected Ubar = 1.0045, pressure gradient = 1.8268
GAMG:  Solving for p, Initial residual = 0.112018, Final residual = 0.0111449, No Iterations 10
time step continuity errors : sum local = 0.00707823, global = -2.46169e-17, cumulative = 2.15927e-17
Pressure gradient source: uncorrected Ubar = 1.00057, pressure gradient = 2.67312
smoothSolver:  Solving for omega, Initial residual = 0.00259567, Final residual = 0.00018533, No Iterations 5
smoothSolver:  Solving for k, Initial residual = 0.024147, Final residual = 0.00159104, No Iterations 6
ExecutionTime = 0.075136 s  ClockTime = 0 s

Time = 24s

smoothSolver:  Solving for Ux, Initial residual = 0.00951286, Final residual = 0.000739644, No Iterations 5
smoothSolver:  Solving for Uy, Initial residual = 0.121771, Final residual = 0.011323, No Iterations 4
Pressure gradient source: uncorrected Ubar = 1.00367, pressure gradient = 1.847
GAMG:  Solving for p, Initial residual = 0.0586386, Final residual = 0.00502167, No Iterations 11
time step continuity errors : sum local = 0.00589457, global = -5.51723e-17, cumulative = -3.35796e-17
Pressure gradient source: uncorrected Ubar = 1.00045, pressure gradient = 2.5718
smoothSolver:  Solving for omega, Initial residual = 0.00228823, Final residual = 0.000168327, No Iterations 5
smoothSolver:  Solving for k, Initial residual = 0.022492, Final residual = 0.00153144, No Iterations 6
ExecutionTime = 0.078041 s  ClockTime = 0 s

Time = 25s

smoothSolver:  Solving for Ux, Initial residual = 0.00917271, Final residual = 0.000719293, No Iterations 5
smoothSolver:  Solving for Uy, Initial residual = 0.102446, Final residual = 0.00646773, No Iterations 5
Pressure gradient source: uncorrected Ubar = 1.00384, pressure gradient = 1.66078
GAMG:  Solving for p, Initial residual = 0.0346255, Final residual = 0.00290919, No Iterations 11
time step continuity errors : sum local = 0.00473466, global = -3.84011e-17, cumulative = -7.19807e-17
Pressure gradient source: uncorrected Ubar = 1.00044, pressure gradient = 2.46731
smoothSolver:  Solving for omega, Initial residual = 0.00210582, Final residual = 0.000175216, No Iterations 5
smoothSolver:  Solving for k, Initial residual = 0.0208131, Final residual = 0.00145166, No Iterations 6
ExecutionTime = 0.080907 s  ClockTime = 0 s

Time = 26s

smoothSolver:  Solving for Ux, Initial residual = 0.00886112, Final residual = 0.000701414, No Iterations 5
smoothSolver:  Solving for Uy, Initial residual = 0.0917795, Final residual = 0.00582637, No Iterations 5
Pressure gradient source: uncorrected Ubar = 1.00315, pressure gradient = 1.68823
GAMG:  Solving for p, Initial residual = 0.0213891, Final residual = 0.00213019, No Iterations 13
time step continuity errors : sum local = 0.00426573, global = 4.11455e-17, cumulative = -3.08352e-17
Pressure gradient source: uncorrected Ubar = 1.00035, pressure gradient = 2.38156
smoothSolver:  Solving for omega, Initial residual = 0.00189338, Final residual = 0.000161467, No Iterations 5
smoothSolver:  Solving for k, Initial residual = 0.0194123, Final residual = 0.00137972, No Iterations 6
ExecutionTime = 0.083866 s  ClockTime = 0 s

Time = 27s

smoothSolver:  Solving for Ux, Initial residual = 0.00858499, Final residual = 0.000685782, No Iterations 5
smoothSolver:  Solving for Uy, Initial residual = 0.0801162, Final residual = 0.00534813, No Iterations 5
Pressure gradient source: uncorrected Ubar = 1.00269, pressure gradient = 1.68602
GAMG:  Solving for p, Initial residual = 0.0136189, Final residual = 0.00130937, No Iterations 15
time step continuity errors : sum local = 0.00287486, global = 1.484e-17, cumulative = -1.59952e-17
Pressure gradient source: uncorrected Ubar = 1.00028, pressure gradient = 2.30992
smoothSolver:  Solving for omega, Initial residual = 0.00178033, Final residual = 0.000160258, No Iterations 5
smoothSolver:  Solving for k, Initial residual = 0.018019, Final residual = 0.00130685, No Iterations 6
ExecutionTime = 0.086946 s  ClockTime = 0 s

Time = 28s

smoothSolver:  Solving for Ux, Initial residual = 0.0083344, Final residual = 0.000670305, No Iterations 5
smoothSolver:  Solving for Uy, Initial residual = 0.0689892, Final residual = 0.00496517, No Iterations 5
Pressure gradient source: uncorrected Ubar = 1.0024, pressure gradient = 1.66261
GAMG:  Solving for p, Initial residual = 0.0104284, Final residual = 0.00102324, No Iterations 13
time step continuity errors : sum local = 0.00234668, global = -3.75405e-17, cumulative = -5.35357e-17
Pressure gradient source: uncorrected Ubar = 1.00023, pressure gradient = 2.24651
smoothSolver:  Solving for omega, Initial residual = 0.00163213, Final residual = 0.00015174, No Iterations 5
smoothSolver:  Solving for k, Initial residual = 0.0168357, Final residual = 0.0012399, No Iterations 6
ExecutionTime = 0.089913 s  ClockTime = 0 s

Time = 29s

smoothSolver:  Solving for Ux, Initial residual = 0.00810574, Final residual = 0.000652059, No Iterations 5
smoothSolver:  Solving for Uy, Initial residual = 0.0597037, Final residual = 0.00486836, No Iterations 5
Pressure gradient source: uncorrected Ubar = 1.00182, pressure gradient = 1.73209
GAMG:  Solving for p, Initial residual = 0.00844298, Final residual = 0.00078339, No Iterations 11
time step continuity errors : sum local = 0.00176483, global = 2.05998e-18, cumulative = -5.14757e-17
Pressure gradient source: uncorrected Ubar = 1.00016, pressure gradient = 2.20212
smoothSolver:  Solving for omega, Initial residual = 0.00154347, Final residual = 0.000153445, No Iterations 5
smoothSolver:  Solving for k, Initial residual = 0.0154097, Final residual = 0.00115018, No Iterations 6
ExecutionTime = 0.092779 s  ClockTime = 0 s

Time = 30s

smoothSolver:  Solving for Ux, Initial residual = 0.00787451, Final residual = 0.000629591, No Iterations 5
smoothSolver:  Solving for Uy, Initial residual = 0.0513543, Final residual = 0.00459349, No Iterations 5
Pressure gradient source: uncorrected Ubar = 1.00126, pressure gradient = 1.83211
GAMG:  Solving for p, Initial residual = 0.00681341, Final residual = 0.000640764, No Iterations 6
time step continuity errors : sum local = 0.00149816, global = -3.20653e-17, cumulative = -8.3541e-17
Pressure gradient source: uncorrected Ubar = 1.00009, pressure gradient = 2.17666
smoothSolver:  Solving for omega, Initial residual = 0.00144351, Final residual = 9.34295e-05, No Iterations 6
smoothSolver:  Solving for k, Initial residual = 0.0139409, Final residual = 0.0010487, No Iterations 6
ExecutionTime = 0.095435 s  ClockTime = 0 s

Time = 31s

smoothSolver:  Solving for Ux, Initial residual = 0.00758647, Final residual = 0.000606158, No Iterations 5
smoothSolver:  Solving for Uy, Initial residual = 0.0455988, Final residual = 0.00432869, No Iterations 5
Pressure gradient source: uncorrected Ubar = 1.00094, pressure gradient = 1.89087
GAMG:  Solving for p, Initial residual = 0.00570653, Final residual = 0.000523613, No Iterations 5
time step continuity errors : sum local = 0.00103978, global = 3.29462e-17, cumulative = -5.05948e-17
Pressure gradient source: uncorrected Ubar = 1.00004, pressure gradient = 2.1635
smoothSolver:  Solving for omega, Initial residual = 0.00136995, Final residual = 9.03586e-05, No Iterations 6
smoothSolver:  Solving for k, Initial residual = 0.0125363, Final residual = 0.000944976, No Iterations 6
ExecutionTime = 0.098879 s  ClockTime = 0 s

Time = 32s

smoothSolver:  Solving for Ux, Initial residual = 0.0073039, Final residual = 0.000583195, No Iterations 5
smoothSolver:  Solving for Uy, Initial residual = 0.0427258, Final residual = 0.00415525, No Iterations 5
Pressure gradient source: uncorrected Ubar = 1.00074, pressure gradient = 1.92702
GAMG:  Solving for p, Initial residual = 0.00503277, Final residual = 0.000431562, No Iterations 5
time step continuity errors : sum local = 0.000781776, global = 2.74439e-17, cumulative = -2.3151e-17
Pressure gradient source: uncorrected Ubar = 1.00002, pressure gradient = 2.15758
smoothSolver:  Solving for omega, Initial residual = 0.00129082, Final residual = 8.67647e-05, No Iterations 6
smoothSolver:  Solving for k, Initial residual = 0.0112795, Final residual = 0.000859469, No Iterations 6
ExecutionTime = 0.102044 s  ClockTime = 0 s

Time = 33s

smoothSolver:  Solving for Ux, Initial residual = 0.00702751, Final residual = 0.00056219, No Iterations 5
smoothSolver:  Solving for Uy, Initial residual = 0.0414016, Final residual = 0.00267647, No Iterations 6
Pressure gradient source: uncorrected Ubar = 1.00062, pressure gradient = 1.95285
GAMG:  Solving for p, Initial residual = 0.00465143, Final residual = 0.000438306, No Iterations 5
time step continuity errors : sum local = 0.000707835, global = -9.75782e-18, cumulative = -3.29088e-17
Pressure gradient source: uncorrected Ubar = 1, pressure gradient = 2.15713
smoothSolver:  Solving for omega, Initial residual = 0.00122457, Final residual = 8.34565e-05, No Iterations 6
smoothSolver:  Solving for k, Initial residual = 0.0101502, Final residual = 0.000774957, No Iterations 6
ExecutionTime = 0.104816 s  ClockTime = 0 s

Time = 34s

smoothSolver:  Solving for Ux, Initial residual = 0.0067845, Final residual = 0.000544023, No Iterations 5
smoothSolver:  Solving for Uy, Initial residual = 0.0396911, Final residual = 0.00265116, No Iterations 6
Pressure gradient source: uncorrected Ubar = 1.00054, pressure gradient = 1.97233
GAMG:  Solving for p, Initial residual = 0.00434181, Final residual = 0.000423611, No Iterations 5
time step continuity errors : sum local = 0.000601529, global = 2.50722e-17, cumulative = -7.83661e-18
Pressure gradient source: uncorrected Ubar = 0.999994, pressure gradient = 2.15907
smoothSolver:  Solving for omega, Initial residual = 0.00117256, Final residual = 8.358e-05, No Iterations 6
smoothSolver:  Solving for k, Initial residual = 0.00919908, Final residual = 0.000695693, No Iterations 6
ExecutionTime = 0.107519 s  ClockTime = 0 s

Time = 35s

smoothSolver:  Solving for Ux, Initial residual = 0.006574, Final residual = 0.000528648, No Iterations 5
smoothSolver:  Solving for Uy, Initial residual = 0.0384194, Final residual = 0.00263371, No Iterations 6
Pressure gradient source: uncorrected Ubar = 1.00072, pressure gradient = 1.90354
GAMG:  Solving for p, Initial residual = 0.00382569, Final residual = 0.000324535, No Iterations 6
time step continuity errors : sum local = 0.000436786, global = 1.46232e-17, cumulative = 6.78662e-18
Pressure gradient source: uncorrected Ubar = 1.00002, pressure gradient = 2.15273
smoothSolver:  Solving for omega, Initial residual = 0.00111246, Final residual = 7.96049e-05, No Iterations 6
smoothSolver:  Solving for k, Initial residual = 0.00860345, Final residual = 0.000637345, No Iterations 6
ExecutionTime = 0.110208 s  ClockTime = 0 s

Time = 36s

smoothSolver:  Solving for Ux, Initial residual = 0.00637496, Final residual = 0.000514002, No Iterations 5
smoothSolver:  Solving for Uy, Initial residual = 0.0384052, Final residual = 0.002681, No Iterations 6
Pressure gradient source: uncorrected Ubar = 1.00054, pressure gradient = 1.95164
GAMG:  Solving for p, Initial residual = 0.00337458, Final residual = 0.00032486, No Iterations 6
time step continuity errors : sum local = 0.000388034, global = 2.79453e-17, cumulative = 3.4732e-17
Pressure gradient source: uncorrected Ubar = 0.999996, pressure gradient = 2.15427
smoothSolver:  Solving for omega, Initial residual = 0.00107619, Final residual = 7.57431e-05, No Iterations 6
smoothSolver:  Solving for k, Initial residual = 0.0081318, Final residual = 0.000586043, No Iterations 6
ExecutionTime = 0.112871 s  ClockTime = 0 s

Time = 37s

smoothSolver:  Solving for Ux, Initial residual = 0.00619621, Final residual = 0.000501224, No Iterations 5
smoothSolver:  Solving for Uy, Initial residual = 0.0386394, Final residual = 0.00275325, No Iterations 6
Pressure gradient source: uncorrected Ubar = 1.00057, pressure gradient = 1.93429
GAMG:  Solving for p, Initial residual = 0.00304136, Final residual = 0.000271435, No Iterations 8
time step continuity errors : sum local = 0.000305976, global = -5.67851e-18, cumulative = 2.90534e-17
Pressure gradient source: uncorrected Ubar = 1, pressure gradient = 2.15373
smoothSolver:  Solving for omega, Initial residual = 0.00104031, Final residual = 7.51192e-05, No Iterations 6
smoothSolver:  Solving for k, Initial residual = 0.00781691, Final residual = 0.000564332, No Iterations 6
ExecutionTime = 0.115662 s  ClockTime = 0 s

Time = 38s

smoothSolver:  Solving for Ux, Initial residual = 0.00603388, Final residual = 0.000489625, No Iterations 5
smoothSolver:  Solving for Uy, Initial residual = 0.0386564, Final residual = 0.00275331, No Iterations 6
Pressure gradient source: uncorrected Ubar = 1.00056, pressure gradient = 1.93325
GAMG:  Solving for p, Initial residual = 0.00268922, Final residual = 0.00024744, No Iterations 10
time step continuity errors : sum local = 0.000260911, global = 7.16658e-17, cumulative = 1.00719e-16
Pressure gradient source: uncorrected Ubar = 1, pressure gradient = 2.15375
smoothSolver:  Solving for omega, Initial residual = 0.00100955, Final residual = 7.10148e-05, No Iterations 6
smoothSolver:  Solving for k, Initial residual = 0.00763899, Final residual = 0.000554066, No Iterations 6
ExecutionTime = 0.118513 s  ClockTime = 0 s

Time = 39s

smoothSolver:  Solving for Ux, Initial residual = 0.00588481, Final residual = 0.000479603, No Iterations 5
smoothSolver:  Solving for Uy, Initial residual = 0.0382707, Final residual = 0.00274617, No Iterations 6
Pressure gradient source: uncorrected Ubar = 1.00044, pressure gradient = 1.97199
GAMG:  Solving for p, Initial residual = 0.00244873, Final residual = 0.000229587, No Iterations 12
time step continuity errors : sum local = 0.000229115, global = 5.19604e-17, cumulative = 1.5268e-16
Pressure gradient source: uncorrected Ubar = 0.999986, pressure gradient = 2.1595
smoothSolver:  Solving for omega, Initial residual = 0.000982603, Final residual = 7.28303e-05, No Iterations 6
smoothSolver:  Solving for k, Initial residual = 0.00742568, Final residual = 0.000547542, No Iterations 6
ExecutionTime = 0.121453 s  ClockTime = 0 s

Time = 40s

smoothSolver:  Solving for Ux, Initial residual = 0.0057451, Final residual = 0.000470282, No Iterations 5
smoothSolver:  Solving for Uy, Initial residual = 0.0381891, Final residual = 0.00274008, No Iterations 6
Pressure gradient source: uncorrected Ubar = 1.00053, pressure gradient = 1.93759
GAMG:  Solving for p, Initial residual = 0.00227456, Final residual = 0.000219291, No Iterations 13
time step continuity errors : sum local = 0.000205293, global = -2.4381e-17, cumulative = 1.28299e-16
Pressure gradient source: uncorrected Ubar = 0.999998, pressure gradient = 2.1605
smoothSolver:  Solving for omega, Initial residual = 0.000948618, Final residual = 6.732e-05, No Iterations 6
smoothSolver:  Solving for k, Initial residual = 0.00730367, Final residual = 0.000541172, No Iterations 6
ExecutionTime = 0.12443 s  ClockTime = 0 s

Time = 41s

smoothSolver:  Solving for Ux, Initial residual = 0.0056145, Final residual = 0.000461685, No Iterations 5
smoothSolver:  Solving for Uy, Initial residual = 0.0377925, Final residual = 0.0027221, No Iterations 6
Pressure gradient source: uncorrected Ubar = 1.00039, pressure gradient = 1.99044
GAMG:  Solving for p, Initial residual = 0.00211987, Final residual = 0.000210898, No Iterations 13
time step continuity errors : sum local = 0.000193985, global = 2.66985e-17, cumulative = 1.54997e-16
Pressure gradient source: uncorrected Ubar = 0.999981, pressure gradient = 2.16899
smoothSolver:  Solving for omega, Initial residual = 0.000921938, Final residual = 6.48944e-05, No Iterations 6
smoothSolver:  Solving for k, Initial residual = 0.00720608, Final residual = 0.000537678, No Iterations 6
ExecutionTime = 0.127435 s  ClockTime = 0 s

Time = 42s

smoothSolver:  Solving for Ux, Initial residual = 0.00549271, Final residual = 0.000453423, No Iterations 5
smoothSolver:  Solving for Uy, Initial residual = 0.0362488, Final residual = 0.00262255, No Iterations 6
Pressure gradient source: uncorrected Ubar = 1.00034, pressure gradient = 2.01565
GAMG:  Solving for p, Initial residual = 0.00201331, Final residual = 0.000184528, No Iterations 15
time step continuity errors : sum local = 0.000166261, global = -1.33492e-17, cumulative = 1.41648e-16
Pressure gradient source: uncorrected Ubar = 0.999975, pressure gradient = 2.18018
smoothSolver:  Solving for omega, Initial residual = 0.000894727, Final residual = 6.61001e-05, No Iterations 6
smoothSolver:  Solving for k, Initial residual = 0.0071146, Final residual = 0.000532225, No Iterations 6
ExecutionTime = 0.130493 s  ClockTime = 0 s

Time = 43s

smoothSolver:  Solving for Ux, Initial residual = 0.0053778, Final residual = 0.000446058, No Iterations 5
smoothSolver:  Solving for Uy, Initial residual = 0.035, Final residual = 0.00255017, No Iterations 6
Pressure gradient source: uncorrected Ubar = 1.00032, pressure gradient = 2.03019
GAMG:  Solving for p, Initial residual = 0.00180854, Final residual = 0.000162274, No Iterations 15
time step continuity errors : sum local = 0.000144758, global = 7.07442e-18, cumulative = 1.48722e-16
Pressure gradient source: uncorrected Ubar = 0.999974, pressure gradient = 2.19232
smoothSolver:  Solving for omega, Initial residual = 0.000861621, Final residual = 6.29307e-05, No Iterations 6
smoothSolver:  Solving for k, Initial residual = 0.0070613, Final residual = 0.000534744, No Iterations 6
ExecutionTime = 0.133672 s  ClockTime = 0 s

Time = 44s

smoothSolver:  Solving for Ux, Initial residual = 0.00526521, Final residual = 0.000438759, No Iterations 5
smoothSolver:  Solving for Uy, Initial residual = 0.0346102, Final residual = 0.00251804, No Iterations 6
Pressure gradient source: uncorrected Ubar = 1.00007, pressure gradient = 2.15834
GAMG:  Solving for p, Initial residual = 0.00173743, Final residual = 0.000167351, No Iterations 15
time step continuity errors : sum local = 0.000147992, global = 2.23955e-17, cumulative = 1.71118e-16
Pressure gradient source: uncorrected Ubar = 0.999941, pressure gradient = 2.22072
smoothSolver:  Solving for omega, Initial residual = 0.00083608, Final residual = 6.1391e-05, No Iterations 6
smoothSolver:  Solving for k, Initial residual = 0.00698367, Final residual = 0.000530415, No Iterations 6
ExecutionTime = 0.136817 s  ClockTime = 0 s

Time = 45s

smoothSolver:  Solving for Ux, Initial residual = 0.00515811, Final residual = 0.000431586, No Iterations 5
smoothSolver:  Solving for Uy, Initial residual = 0.0336742, Final residual = 0.00245888, No Iterations 6
Pressure gradient source: uncorrected Ubar = 1.00001, pressure gradient = 2.21696
GAMG:  Solving for p, Initial residual = 0.00160644, Final residual = 0.000142104, No Iterations 17
time step continuity errors : sum local = 0.000125774, global = -1.00899e-17, cumulative = 1.61028e-16
Pressure gradient source: uncorrected Ubar = 0.999933, pressure gradient = 2.25405
smoothSolver:  Solving for omega, Initial residual = 0.000805432, Final residual = 5.75807e-05, No Iterations 6
smoothSolver:  Solving for k, Initial residual = 0.00692456, Final residual = 0.000528331, No Iterations 6
ExecutionTime = 0.139985 s  ClockTime = 0 s

Time = 46s

smoothSolver:  Solving for Ux, Initial residual = 0.00505821, Final residual = 0.000424521, No Iterations 5
smoothSolver:  Solving for Uy, Initial residual = 0.0321806, Final residual = 0.00236594, No Iterations 6
Pressure gradient source: uncorrected Ubar = 0.99991, pressure gradient = 2.30114
GAMG:  Solving for p, Initial residual = 0.00140971, Final residual = 0.000123246, No Iterations 15
time step continuity errors : sum local = 0.000109806, global = 2.60276e-17, cumulative = 1.87056e-16
Pressure gradient source: uncorrected Ubar = 0.999921, pressure gradient = 2.29523
smoothSolver:  Solving for omega, Initial residual = 0.000782786, Final residual = 5.79753e-05, No Iterations 6
smoothSolver:  Solving for k, Initial residual = 0.00685076, Final residual = 0.000523886, No Iterations 6
ExecutionTime = 0.14308 s  ClockTime = 0 s

Time = 47s

smoothSolver:  Solving for Ux, Initial residual = 0.004963, Final residual = 0.000418224, No Iterations 5
smoothSolver:  Solving for Uy, Initial residual = 0.0307463, Final residual = 0.00225818, No Iterations 6
Pressure gradient source: uncorrected Ubar = 0.999902, pressure gradient = 2.34823
GAMG:  Solving for p, Initial residual = 0.0012894, Final residual = 0.000121889, No Iterations 12
time step continuity errors : sum local = 0.000111728, global = -4.37069e-17, cumulative = 1.43349e-16
Pressure gradient source: uncorrected Ubar = 0.99992, pressure gradient = 2.3384
smoothSolver:  Solving for omega, Initial residual = 0.000756284, Final residual = 5.60547e-05, No Iterations 6
smoothSolver:  Solving for k, Initial residual = 0.00682913, Final residual = 0.0005271, No Iterations 6
ExecutionTime = 0.146076 s  ClockTime = 0 s

Time = 48s

smoothSolver:  Solving for Ux, Initial residual = 0.00486752, Final residual = 0.000411773, No Iterations 5
smoothSolver:  Solving for Uy, Initial residual = 0.0294033, Final residual = 0.00217381, No Iterations 6
Pressure gradient source: uncorrected Ubar = 0.99981, pressure gradient = 2.44582
GAMG:  Solving for p, Initial residual = 0.00116001, Final residual = 7.71744e-05, No Iterations 7
time step continuity errors : sum local = 6.03712e-05, global = -6.53572e-18, cumulative = 1.36813e-16
Pressure gradient source: uncorrected Ubar = 0.999908, pressure gradient = 2.39028
smoothSolver:  Solving for omega, Initial residual = 0.000728715, Final residual = 5.47413e-05, No Iterations 6
smoothSolver:  Solving for k, Initial residual = 0.00676185, Final residual = 0.000522708, No Iterations 6
ExecutionTime = 0.148786 s  ClockTime = 0 s

Time = 49s

smoothSolver:  Solving for Ux, Initial residual = 0.00477601, Final residual = 0.000405402, No Iterations 5
smoothSolver:  Solving for Uy, Initial residual = 0.0277581, Final residual = 0.00206949, No Iterations 6
Pressure gradient source: uncorrected Ubar = 0.999864, pressure gradient = 2.47043
GAMG:  Solving for p, Initial residual = 0.00105878, Final residual = 6.82523e-05, No Iterations 7
time step continuity errors : sum local = 5.32355e-05, global = 1.76657e-17, cumulative = 1.54479e-16
Pressure gradient source: uncorrected Ubar = 0.999916, pressure gradient = 2.4399
smoothSolver:  Solving for omega, Initial residual = 0.000706685, Final residual = 5.28077e-05, No Iterations 6
smoothSolver:  Solving for k, Initial residual = 0.00672156, Final residual = 0.000519271, No Iterations 6
ExecutionTime = 0.151495 s  ClockTime = 0 s

Time = 50s

smoothSolver:  Solving for Ux, Initial residual = 0.00469051, Final residual = 0.00039919, No Iterations 5
smoothSolver:  Solving for Uy, Initial residual = 0.0261371, Final residual = 0.00196899, No Iterations 6
Pressure gradient source: uncorrected Ubar = 0.999839, pressure gradient = 2.53941
GAMG:  Solving for p, Initial residual = 0.000902097, Final residual = 5.78946e-05, No Iterations 7
time step continuity errors : sum local = 4.47248e-05, global = 3.37526e-17, cumulative = 1.88231e-16
Pressure gradient source: uncorrected Ubar = 0.999913, pressure gradient = 2.49362
smoothSolver:  Solving for omega, Initial residual = 0.000679071, Final residual = 5.1449e-05, No Iterations 6
smoothSolver:  Solving for k, Initial residual = 0.00668356, Final residual = 0.000521707, No Iterations 6
ExecutionTime = 0.154216 s  ClockTime = 0 s

Time = 51s

smoothSolver:  Solving for Ux, Initial residual = 0.00460825, Final residual = 0.000393668, No Iterations 5
smoothSolver:  Solving for Uy, Initial residual = 0.0245196, Final residual = 0.00186486, No Iterations 6
Pressure gradient source: uncorrected Ubar = 0.999899, pressure gradient = 2.55858
GAMG:  Solving for p, Initial residual = 0.00078965, Final residual = 7.79521e-05, No Iterations 8
time step continuity errors : sum local = 6.82747e-05, global = -3.03848e-17, cumulative = 1.57846e-16
Pressure gradient source: uncorrected Ubar = 0.999922, pressure gradient = 2.54402
smoothSolver:  Solving for omega, Initial residual = 0.000656177, Final residual = 4.92406e-05, No Iterations 6
smoothSolver:  Solving for k, Initial residual = 0.00662713, Final residual = 0.000514095, No Iterations 6
ExecutionTime = 0.15699 s  ClockTime = 0 s

Time = 52s

smoothSolver:  Solving for Ux, Initial residual = 0.00452963, Final residual = 0.000388391, No Iterations 5
smoothSolver:  Solving for Uy, Initial residual = 0.0239791, Final residual = 0.00182996, No Iterations 6
Pressure gradient source: uncorrected Ubar = 0.999959, pressure gradient = 2.57148
GAMG:  Solving for p, Initial residual = 0.000670708, Final residual = 6.32683e-05, No Iterations 10
time step continuity errors : sum local = 5.44816e-05, global = 3.86823e-17, cumulative = 1.96529e-16
Pressure gradient source: uncorrected Ubar = 0.999931, pressure gradient = 2.59062
smoothSolver:  Solving for omega, Initial residual = 0.000629343, Final residual = 4.7444e-05, No Iterations 6
smoothSolver:  Solving for k, Initial residual = 0.00659373, Final residual = 0.000517704, No Iterations 6
ExecutionTime = 0.159836 s  ClockTime = 0 s

Time = 53s

smoothSolver:  Solving for Ux, Initial residual = 0.00445476, Final residual = 0.000383123, No Iterations 5
smoothSolver:  Solving for Uy, Initial residual = 0.0229236, Final residual = 0.00176653, No Iterations 6
Pressure gradient source: uncorrected Ubar = 1.00003, pressure gradient = 2.57189
GAMG:  Solving for p, Initial residual = 0.000592845, Final residual = 5.56946e-05, No Iterations 8
time step continuity errors : sum local = 4.6501e-05, global = 1.85907e-17, cumulative = 2.15119e-16
Pressure gradient source: uncorrected Ubar = 0.999941, pressure gradient = 2.63216
smoothSolver:  Solving for omega, Initial residual = 0.00061074, Final residual = 4.64054e-05, No Iterations 6
smoothSolver:  Solving for k, Initial residual = 0.0065747, Final residual = 0.000516434, No Iterations 6
ExecutionTime = 0.162592 s  ClockTime = 0 s

Time = 54s

smoothSolver:  Solving for Ux, Initial residual = 0.00438519, Final residual = 0.000378047, No Iterations 5
smoothSolver:  Solving for Uy, Initial residual = 0.0221458, Final residual = 0.00171464, No Iterations 6
Pressure gradient source: uncorrected Ubar = 1.00006, pressure gradient = 2.58502
GAMG:  Solving for p, Initial residual = 0.000556158, Final residual = 4.73126e-05, No Iterations 8
time step continuity errors : sum local = 3.80665e-05, global = 4.338e-17, cumulative = 2.58499e-16
Pressure gradient source: uncorrected Ubar = 0.999947, pressure gradient = 2.67108
smoothSolver:  Solving for omega, Initial residual = 0.00058995, Final residual = 4.47731e-05, No Iterations 6
smoothSolver:  Solving for k, Initial residual = 0.00653287, Final residual = 0.000516671, No Iterations 6
ExecutionTime = 0.165372 s  ClockTime = 0 s

Time = 55s

smoothSolver:  Solving for Ux, Initial residual = 0.00431955, Final residual = 0.000373747, No Iterations 5
smoothSolver:  Solving for Uy, Initial residual = 0.0211328, Final residual = 0.00163596, No Iterations 6
Pressure gradient source: uncorrected Ubar = 1.00012, pressure gradient = 2.57619
GAMG:  Solving for p, Initial residual = 0.000540593, Final residual = 4.20195e-05, No Iterations 8
time step continuity errors : sum local = 3.23047e-05, global = -4.72307e-18, cumulative = 2.53776e-16
Pressure gradient source: uncorrected Ubar = 0.999956, pressure gradient = 2.70457
smoothSolver:  Solving for omega, Initial residual = 0.000572264, Final residual = 4.34811e-05, No Iterations 6
smoothSolver:  Solving for k, Initial residual = 0.00650351, Final residual = 0.000512517, No Iterations 6
ExecutionTime = 0.168143 s  ClockTime = 0 s

Time = 56s

smoothSolver:  Solving for Ux, Initial residual = 0.00425864, Final residual = 0.000369807, No Iterations 5
smoothSolver:  Solving for Uy, Initial residual = 0.0201518, Final residual = 0.00154628, No Iterations 6
Pressure gradient source: uncorrected Ubar = 1.00017, pressure gradient = 2.56909
GAMG:  Solving for p, Initial residual = 0.000500162, Final residual = 4.88509e-05, No Iterations 6
time step continuity errors : sum local = 3.46562e-05, global = 7.3082e-18, cumulative = 2.61085e-16
Pressure gradient source: uncorrected Ubar = 0.999963, pressure gradient = 2.73347
smoothSolver:  Solving for omega, Initial residual = 0.000554278, Final residual = 4.20278e-05, No Iterations 6
smoothSolver:  Solving for k, Initial residual = 0.00647213, Final residual = 0.0005153, No Iterations 6
ExecutionTime = 0.170828 s  ClockTime = 0 s

Time = 57s

smoothSolver:  Solving for Ux, Initial residual = 0.00420226, Final residual = 0.000366167, No Iterations 5
smoothSolver:  Solving for Uy, Initial residual = 0.0192722, Final residual = 0.00146813, No Iterations 6
Pressure gradient source: uncorrected Ubar = 1.00022, pressure gradient = 2.55764
GAMG:  Solving for p, Initial residual = 0.000474288, Final residual = 4.62921e-05, No Iterations 6
time step continuity errors : sum local = 3.0526e-05, global = -6.58314e-18, cumulative = 2.54501e-16
Pressure gradient source: uncorrected Ubar = 0.99997, pressure gradient = 2.7576
smoothSolver:  Solving for omega, Initial residual = 0.000537671, Final residual = 4.03807e-05, No Iterations 6
smoothSolver:  Solving for k, Initial residual = 0.00643343, Final residual = 0.000510713, No Iterations 6
ExecutionTime = 0.173502 s  ClockTime = 0 s

Time = 58s

smoothSolver:  Solving for Ux, Initial residual = 0.00415015, Final residual = 0.00036263, No Iterations 5
smoothSolver:  Solving for Uy, Initial residual = 0.0188678, Final residual = 0.00141762, No Iterations 6
Pressure gradient source: uncorrected Ubar = 1.00025, pressure gradient = 2.5467
GAMG:  Solving for p, Initial residual = 0.000425356, Final residual = 3.18686e-05, No Iterations 7
time step continuity errors : sum local = 1.86308e-05, global = -3.64122e-17, cumulative = 2.18089e-16
Pressure gradient source: uncorrected Ubar = 0.999976, pressure gradient = 2.77765
smoothSolver:  Solving for omega, Initial residual = 0.000522432, Final residual = 3.95072e-05, No Iterations 6
smoothSolver:  Solving for k, Initial residual = 0.00641138, Final residual = 0.000512758, No Iterations 6
ExecutionTime = 0.17624 s  ClockTime = 0 s

Time = 59s

smoothSolver:  Solving for Ux, Initial residual = 0.00409989, Final residual = 0.00035937, No Iterations 5
smoothSolver:  Solving for Uy, Initial residual = 0.0180698, Final residual = 0.00134233, No Iterations 6
Pressure gradient source: uncorrected Ubar = 1.00028, pressure gradient = 2.52912
GAMG:  Solving for p, Initial residual = 0.000426488, Final residual = 4.02694e-05, No Iterations 5
time step continuity errors : sum local = 1.99261e-05, global = -1.79791e-17, cumulative = 2.0011e-16
Pressure gradient source: uncorrected Ubar = 0.999982, pressure gradient = 2.7932
smoothSolver:  Solving for omega, Initial residual = 0.000508048, Final residual = 3.82024e-05, No Iterations 6
smoothSolver:  Solving for k, Initial residual = 0.00637828, Final residual = 0.000508266, No Iterations 6
ExecutionTime = 0.178916 s  ClockTime = 0 s

Time = 60s

smoothSolver:  Solving for Ux, Initial residual = 0.00405202, Final residual = 0.000356409, No Iterations 5
smoothSolver:  Solving for Uy, Initial residual = 0.0175131, Final residual = 0.00129298, No Iterations 6
Pressure gradient source: uncorrected Ubar = 1.00031, pressure gradient = 2.51028
GAMG:  Solving for p, Initial residual = 0.000415507, Final residual = 3.69384e-05, No Iterations 6
time step continuity errors : sum local = 1.65175e-05, global = 1.42116e-17, cumulative = 2.14322e-16
Pressure gradient source: uncorrected Ubar = 0.999987, pressure gradient = 2.80456
smoothSolver:  Solving for omega, Initial residual = 0.000494041, Final residual = 3.70839e-05, No Iterations 6
smoothSolver:  Solving for k, Initial residual = 0.00636446, Final residual = 0.00051238, No Iterations 6
ExecutionTime = 0.181654 s  ClockTime = 0 s

Time = 61s

smoothSolver:  Solving for Ux, Initial residual = 0.00400553, Final residual = 0.000353601, No Iterations 5
smoothSolver:  Solving for Uy, Initial residual = 0.017144, Final residual = 0.00125441, No Iterations 6
Pressure gradient source: uncorrected Ubar = 1.00034, pressure gradient = 2.49068
GAMG:  Solving for p, Initial residual = 0.000375714, Final residual = 3.59346e-05, No Iterations 5
time step continuity errors : sum local = 1.85317e-05, global = 2.57718e-17, cumulative = 2.40093e-16
Pressure gradient source: uncorrected Ubar = 0.999992, pressure gradient = 2.81215
smoothSolver:  Solving for omega, Initial residual = 0.000481117, Final residual = 3.61673e-05, No Iterations 6
smoothSolver:  Solving for k, Initial residual = 0.00632397, Final residual = 0.000507789, No Iterations 6
ExecutionTime = 0.185237 s  ClockTime = 0 s

Time = 62s

smoothSolver:  Solving for Ux, Initial residual = 0.00396175, Final residual = 0.000350806, No Iterations 5
smoothSolver:  Solving for Uy, Initial residual = 0.0170067, Final residual = 0.00124881, No Iterations 6
Pressure gradient source: uncorrected Ubar = 1.00035, pressure gradient = 2.47442
GAMG:  Solving for p, Initial residual = 0.000366312, Final residual = 3.32907e-05, No Iterations 8
time step continuity errors : sum local = 1.82494e-05, global = 1.38151e-17, cumulative = 2.53909e-16
Pressure gradient source: uncorrected Ubar = 0.999995, pressure gradient = 2.81685
smoothSolver:  Solving for omega, Initial residual = 0.000469403, Final residual = 3.4993e-05, No Iterations 6
smoothSolver:  Solving for k, Initial residual = 0.00629523, Final residual = 0.000508144, No Iterations 6
ExecutionTime = 0.188259 s  ClockTime = 0 s

Time = 63s

smoothSolver:  Solving for Ux, Initial residual = 0.00391992, Final residual = 0.000348104, No Iterations 5
smoothSolver:  Solving for Uy, Initial residual = 0.0164338, Final residual = 0.00120724, No Iterations 6
Pressure gradient source: uncorrected Ubar = 1.00037, pressure gradient = 2.45301
GAMG:  Solving for p, Initial residual = 0.00040659, Final residual = 3.56074e-05, No Iterations 7
time step continuity errors : sum local = 1.90289e-05, global = -6.84234e-18, cumulative = 2.47066e-16
Pressure gradient source: uncorrected Ubar = 0.999999, pressure gradient = 2.81825
smoothSolver:  Solving for omega, Initial residual = 0.000459149, Final residual = 3.44786e-05, No Iterations 6
smoothSolver:  Solving for k, Initial residual = 0.00626219, Final residual = 0.000503057, No Iterations 6
ExecutionTime = 0.191135 s  ClockTime = 0 s

Time = 64s

smoothSolver:  Solving for Ux, Initial residual = 0.00387916, Final residual = 0.000345752, No Iterations 5
smoothSolver:  Solving for Uy, Initial residual = 0.0165597, Final residual = 0.0012039, No Iterations 6
Pressure gradient source: uncorrected Ubar = 1.00038, pressure gradient = 2.43527
GAMG:  Solving for p, Initial residual = 0.0003489, Final residual = 3.43023e-05, No Iterations 10
time step continuity errors : sum local = 1.92985e-05, global = -8.06037e-18, cumulative = 2.39006e-16
Pressure gradient source: uncorrected Ubar = 1, pressure gradient = 2.8173
smoothSolver:  Solving for omega, Initial residual = 0.000449733, Final residual = 3.42776e-05, No Iterations 6
smoothSolver:  Solving for k, Initial residual = 0.00624319, Final residual = 0.000508258, No Iterations 6
ExecutionTime = 0.194133 s  ClockTime = 0 s

Time = 65s

smoothSolver:  Solving for Ux, Initial residual = 0.00383867, Final residual = 0.000343322, No Iterations 5
smoothSolver:  Solving for Uy, Initial residual = 0.0163602, Final residual = 0.00118656, No Iterations 6
Pressure gradient source: uncorrected Ubar = 1.00039, pressure gradient = 2.4138
GAMG:  Solving for p, Initial residual = 0.000354794, Final residual = 3.11249e-05, No Iterations 12
time step continuity errors : sum local = 1.8011e-05, global = 2.55253e-17, cumulative = 2.64531e-16
Pressure gradient source: uncorrected Ubar = 1, pressure gradient = 2.81374
smoothSolver:  Solving for omega, Initial residual = 0.000439582, Final residual = 3.33902e-05, No Iterations 6
smoothSolver:  Solving for k, Initial residual = 0.00620033, Final residual = 0.000501257, No Iterations 6
ExecutionTime = 0.197159 s  ClockTime = 0 s

Time = 66s

smoothSolver:  Solving for Ux, Initial residual = 0.00380002, Final residual = 0.000340956, No Iterations 5
smoothSolver:  Solving for Uy, Initial residual = 0.0157386, Final residual = 0.00113563, No Iterations 6
Pressure gradient source: uncorrected Ubar = 1.0004, pressure gradient = 2.39279
GAMG:  Solving for p, Initial residual = 0.000362795, Final residual = 3.58938e-05, No Iterations 12
time step continuity errors : sum local = 2.04711e-05, global = 3.15333e-17, cumulative = 2.96065e-16
Pressure gradient source: uncorrected Ubar = 1.00001, pressure gradient = 2.80793
smoothSolver:  Solving for omega, Initial residual = 0.000430022, Final residual = 3.21917e-05, No Iterations 6
smoothSolver:  Solving for k, Initial residual = 0.00617898, Final residual = 0.000503587, No Iterations 6
ExecutionTime = 0.200385 s  ClockTime = 0 s

Time = 67s

smoothSolver:  Solving for Ux, Initial residual = 0.00376365, Final residual = 0.000338706, No Iterations 5
smoothSolver:  Solving for Uy, Initial residual = 0.0153322, Final residual = 0.00110595, No Iterations 6
Pressure gradient source: uncorrected Ubar = 1.00041, pressure gradient = 2.36782
GAMG:  Solving for p, Initial residual = 0.000363981, Final residual = 3.18437e-05, No Iterations 8
time step continuity errors : sum local = 1.8545e-05, global = -1.38244e-17, cumulative = 2.8224e-16
Pressure gradient source: uncorrected Ubar = 1.00001, pressure gradient = 2.79953
smoothSolver:  Solving for omega, Initial residual = 0.00042219, Final residual = 3.18281e-05, No Iterations 6
smoothSolver:  Solving for k, Initial residual = 0.00612926, Final residual = 0.000494089, No Iterations 6
ExecutionTime = 0.203342 s  ClockTime = 0 s

Time = 68s

smoothSolver:  Solving for Ux, Initial residual = 0.00372917, Final residual = 0.000336516, No Iterations 5
smoothSolver:  Solving for Uy, Initial residual = 0.0153654, Final residual = 0.0011182, No Iterations 6
Pressure gradient source: uncorrected Ubar = 1.00041, pressure gradient = 2.34794
GAMG:  Solving for p, Initial residual = 0.000299173, Final residual = 2.6039e-05, No Iterations 14
time step continuity errors : sum local = 1.49068e-05, global = -3.78514e-17, cumulative = 2.44389e-16
Pressure gradient source: uncorrected Ubar = 1.00001, pressure gradient = 2.78964
smoothSolver:  Solving for omega, Initial residual = 0.000413966, Final residual = 3.16452e-05, No Iterations 6
smoothSolver:  Solving for k, Initial residual = 0.00611379, Final residual = 0.000500449, No Iterations 6
ExecutionTime = 0.20647 s  ClockTime = 0 s

Time = 69s

smoothSolver:  Solving for Ux, Initial residual = 0.00369462, Final residual = 0.000334542, No Iterations 5
smoothSolver:  Solving for Uy, Initial residual = 0.0149845, Final residual = 0.0010925, No Iterations 6
Pressure gradient source: uncorrected Ubar = 1.00041, pressure gradient = 2.32995
GAMG:  Solving for p, Initial residual = 0.000299263, Final residual = 2.63806e-05, No Iterations 14
time step continuity errors : sum local = 1.4431e-05, global = -6.57213e-18, cumulative = 2.37817e-16
Pressure gradient source: uncorrected Ubar = 1.00001, pressure gradient = 2.77868
smoothSolver:  Solving for omega, Initial residual = 0.000405435, Final residual = 3.08739e-05, No Iterations 6
smoothSolver:  Solving for k, Initial residual = 0.00608124, Final residual = 0.000494177, No Iterations 6
ExecutionTime = 0.209505 s  ClockTime = 0 s

Time = 70s

smoothSolver:  Solving for Ux, Initial residual = 0.00366081, Final residual = 0.000332599, No Iterations 5
smoothSolver:  Solving for Uy, Initial residual = 0.0147335, Final residual = 0.00107382, No Iterations 6
Pressure gradient source: uncorrected Ubar = 1.00041, pressure gradient = 2.30584
GAMG:  Solving for p, Initial residual = 0.000317709, Final residual = 2.65247e-05, No Iterations 14
time step continuity errors : sum local = 1.40591e-05, global = -1.26547e-17, cumulative = 2.25162e-16
Pressure gradient source: uncorrected Ubar = 1.00001, pressure gradient = 2.76586
smoothSolver:  Solving for omega, Initial residual = 0.000398935, Final residual = 3.02665e-05, No Iterations 6
smoothSolver:  Solving for k, Initial residual = 0.00604516, Final residual = 0.000494652, No Iterations 6
ExecutionTime = 0.212556 s  ClockTime = 0 s

Time = 71s

smoothSolver:  Solving for Ux, Initial residual = 0.00362827, Final residual = 0.000330706, No Iterations 5
smoothSolver:  Solving for Uy, Initial residual = 0.0146675, Final residual = 0.00107364, No Iterations 6
Pressure gradient source: uncorrected Ubar = 1.00042, pressure gradient = 2.27796
GAMG:  Solving for p, Initial residual = 0.000283974, Final residual = 2.45929e-05, No Iterations 14
time step continuity errors : sum local = 1.30362e-05, global = 2.47791e-17, cumulative = 2.49941e-16
Pressure gradient source: uncorrected Ubar = 1.00001, pressure gradient = 2.75084
smoothSolver:  Solving for omega, Initial residual = 0.000392514, Final residual = 2.99057e-05, No Iterations 6
smoothSolver:  Solving for k, Initial residual = 0.00600176, Final residual = 0.000488334, No Iterations 6
ExecutionTime = 0.215619 s  ClockTime = 0 s

Time = 72s

smoothSolver:  Solving for Ux, Initial residual = 0.00359717, Final residual = 0.000328816, No Iterations 5
smoothSolver:  Solving for Uy, Initial residual = 0.0145931, Final residual = 0.00106642, No Iterations 6
Pressure gradient source: uncorrected Ubar = 1.00041, pressure gradient = 2.2559
GAMG:  Solving for p, Initial residual = 0.000318041, Final residual = 3.01668e-05, No Iterations 12
time step continuity errors : sum local = 1.50871e-05, global = -5.83521e-18, cumulative = 2.44106e-16
Pressure gradient source: uncorrected Ubar = 1.00001, pressure gradient = 2.7348
smoothSolver:  Solving for omega, Initial residual = 0.000386195, Final residual = 2.94155e-05, No Iterations 6
smoothSolver:  Solving for k, Initial residual = 0.00599273, Final residual = 0.000493752, No Iterations 6
ExecutionTime = 0.218592 s  ClockTime = 0 s

Time = 73s

smoothSolver:  Solving for Ux, Initial residual = 0.00356782, Final residual = 0.000326986, No Iterations 5
smoothSolver:  Solving for Uy, Initial residual = 0.0144398, Final residual = 0.00107614, No Iterations 6
Pressure gradient source: uncorrected Ubar = 1.00042, pressure gradient = 2.22656
GAMG:  Solving for p, Initial residual = 0.000293603, Final residual = 2.65171e-05, No Iterations 14
time step continuity errors : sum local = 1.32335e-05, global = 1.50933e-17, cumulative = 2.59199e-16
Pressure gradient source: uncorrected Ubar = 1.00001, pressure gradient = 2.71672
smoothSolver:  Solving for omega, Initial residual = 0.000380623, Final residual = 2.94245e-05, No Iterations 6
smoothSolver:  Solving for k, Initial residual = 0.0059497, Final residual = 0.000486195, No Iterations 6
ExecutionTime = 0.22163 s  ClockTime = 0 s

Time = 74s

smoothSolver:  Solving for Ux, Initial residual = 0.00353896, Final residual = 0.000325321, No Iterations 5
smoothSolver:  Solving for Uy, Initial residual = 0.0142226, Final residual = 0.00106373, No Iterations 6
Pressure gradient source: uncorrected Ubar = 1.00041, pressure gradient = 2.20733
GAMG:  Solving for p, Initial residual = 0.000291928, Final residual = 2.72635e-05, No Iterations 14
time step continuity errors : sum local = 1.31069e-05, global = 1.30282e-17, cumulative = 2.72227e-16
Pressure gradient source: uncorrected Ubar = 1.00001, pressure gradient = 2.69843
smoothSolver:  Solving for omega, Initial residual = 0.00037408, Final residual = 2.84843e-05, No Iterations 6
smoothSolver:  Solving for k, Initial residual = 0.00592208, Final residual = 0.000488436, No Iterations 6
ExecutionTime = 0.224642 s  ClockTime = 0 s

Time = 75s

smoothSolver:  Solving for Ux, Initial residual = 0.00351113, Final residual = 0.000323815, No Iterations 5
smoothSolver:  Solving for Uy, Initial residual = 0.0140624, Final residual = 0.00106555, No Iterations 6
Pressure gradient source: uncorrected Ubar = 1.00041, pressure gradient = 2.17739
GAMG:  Solving for p, Initial residual = 0.000266865, Final residual = 2.47246e-05, No Iterations 14
time step continuity errors : sum local = 1.17539e-05, global = 2.94988e-17, cumulative = 3.01726e-16
Pressure gradient source: uncorrected Ubar = 1.00002, pressure gradient = 2.67826
smoothSolver:  Solving for omega, Initial residual = 0.000369563, Final residual = 2.85726e-05, No Iterations 6
smoothSolver:  Solving for k, Initial residual = 0.00587191, Final residual = 0.000479324, No Iterations 6
ExecutionTime = 0.227715 s  ClockTime = 0 s

Time = 76s

smoothSolver:  Solving for Ux, Initial residual = 0.00348395, Final residual = 0.000322359, No Iterations 5
smoothSolver:  Solving for Uy, Initial residual = 0.0137873, Final residual = 0.00105649, No Iterations 6
Pressure gradient source: uncorrected Ubar = 1.00041, pressure gradient = 2.15424
GAMG:  Solving for p, Initial residual = 0.000261803, Final residual = 2.41098e-05, No Iterations 14
time step continuity errors : sum local = 1.12898e-05, global = -1.27106e-17, cumulative = 2.89016e-16
Pressure gradient source: uncorrected Ubar = 1.00002, pressure gradient = 2.65755
smoothSolver:  Solving for omega, Initial residual = 0.000363298, Final residual = 2.78509e-05, No Iterations 6
smoothSolver:  Solving for k, Initial residual = 0.00586034, Final residual = 0.000485351, No Iterations 6
ExecutionTime = 0.230782 s  ClockTime = 0 s

Time = 77s

smoothSolver:  Solving for Ux, Initial residual = 0.00345776, Final residual = 0.000320886, No Iterations 5
smoothSolver:  Solving for Uy, Initial residual = 0.0141835, Final residual = 0.00108192, No Iterations 6
Pressure gradient source: uncorrected Ubar = 1.00042, pressure gradient = 2.1181
GAMG:  Solving for p, Initial residual = 0.000281657, Final residual = 2.50489e-05, No Iterations 14
time step continuity errors : sum local = 1.11645e-05, global = 1.38905e-17, cumulative = 3.02906e-16
Pressure gradient source: uncorrected Ubar = 1.00002, pressure gradient = 2.63434
smoothSolver:  Solving for omega, Initial residual = 0.000358389, Final residual = 2.77857e-05, No Iterations 6
smoothSolver:  Solving for k, Initial residual = 0.0058219, Final residual = 0.000478507, No Iterations 6
ExecutionTime = 0.233918 s  ClockTime = 0 s

Time = 78s

smoothSolver:  Solving for Ux, Initial residual = 0.00343275, Final residual = 0.000319439, No Iterations 5
smoothSolver:  Solving for Uy, Initial residual = 0.0141408, Final residual = 0.00110466, No Iterations 6
Pressure gradient source: uncorrected Ubar = 1.00041, pressure gradient = 2.09102
GAMG:  Solving for p, Initial residual = 0.000290744, Final residual = 2.43564e-05, No Iterations 14
time step continuity errors : sum local = 1.05521e-05, global = -1.15578e-17, cumulative = 2.91348e-16
Pressure gradient source: uncorrected Ubar = 1.00002, pressure gradient = 2.61039
smoothSolver:  Solving for omega, Initial residual = 0.000352952, Final residual = 2.71156e-05, No Iterations 6
smoothSolver:  Solving for k, Initial residual = 0.00578381, Final residual = 0.000477939, No Iterations 6
ExecutionTime = 0.237012 s  ClockTime = 0 s

Time = 79s

smoothSolver:  Solving for Ux, Initial residual = 0.00340907, Final residual = 0.000318056, No Iterations 5
smoothSolver:  Solving for Uy, Initial residual = 0.0140258, Final residual = 0.00110289, No Iterations 6
Pressure gradient source: uncorrected Ubar = 1.00041, pressure gradient = 2.06269
GAMG:  Solving for p, Initial residual = 0.000264136, Final residual = 2.25747e-05, No Iterations 14
time step continuity errors : sum local = 9.76284e-06, global = -2.67696e-17, cumulative = 2.64579e-16
Pressure gradient source: uncorrected Ubar = 1.00002, pressure gradient = 2.5856
smoothSolver:  Solving for omega, Initial residual = 0.00034831, Final residual = 2.69306e-05, No Iterations 6
smoothSolver:  Solving for k, Initial residual = 0.00575495, Final residual = 0.00047437, No Iterations 6
ExecutionTime = 0.240059 s  ClockTime = 0 s

Time = 80s

smoothSolver:  Solving for Ux, Initial residual = 0.00338615, Final residual = 0.000316888, No Iterations 5
smoothSolver:  Solving for Uy, Initial residual = 0.0140254, Final residual = 0.00111214, No Iterations 6
Pressure gradient source: uncorrected Ubar = 1.00041, pressure gradient = 2.03045
GAMG:  Solving for p, Initial residual = 0.000249538, Final residual = 2.16183e-05, No Iterations 14
time step continuity errors : sum local = 9.03969e-06, global = -1.54346e-17, cumulative = 2.49144e-16
Pressure gradient source: uncorrected Ubar = 1.00002, pressure gradient = 2.55947
smoothSolver:  Solving for omega, Initial residual = 0.000343702, Final residual = 2.66279e-05, No Iterations 6
smoothSolver:  Solving for k, Initial residual = 0.00573271, Final residual = 0.000476238, No Iterations 6
ExecutionTime = 0.243102 s  ClockTime = 0 s

Time = 81s

smoothSolver:  Solving for Ux, Initial residual = 0.00336354, Final residual = 0.000315772, No Iterations 5
smoothSolver:  Solving for Uy, Initial residual = 0.0137932, Final residual = 0.00110118, No Iterations 6
Pressure gradient source: uncorrected Ubar = 1.00041, pressure gradient = 1.99751
GAMG:  Solving for p, Initial residual = 0.000232298, Final residual = 2.10134e-05, No Iterations 14
time step continuity errors : sum local = 8.51498e-06, global = 2.65206e-18, cumulative = 2.51796e-16
Pressure gradient source: uncorrected Ubar = 1.00002, pressure gradient = 2.53209
smoothSolver:  Solving for omega, Initial residual = 0.0003395, Final residual = 2.65044e-05, No Iterations 6
smoothSolver:  Solving for k, Initial residual = 0.00568555, Final residual = 0.000466691, No Iterations 6
ExecutionTime = 0.246167 s  ClockTime = 0 s

Time = 82s

smoothSolver:  Solving for Ux, Initial residual = 0.00334195, Final residual = 0.000314723, No Iterations 5
smoothSolver:  Solving for Uy, Initial residual = 0.0141535, Final residual = 0.00113457, No Iterations 6
Pressure gradient source: uncorrected Ubar = 1.00041, pressure gradient = 1.96407
GAMG:  Solving for p, Initial residual = 0.000217167, Final residual = 1.86e-05, No Iterations 16
time step continuity errors : sum local = 7.46623e-06, global = -1.36694e-17, cumulative = 2.38127e-16
Pressure gradient source: uncorrected Ubar = 1.00002, pressure gradient = 2.50356
smoothSolver:  Solving for omega, Initial residual = 0.000334752, Final residual = 2.59915e-05, No Iterations 6
smoothSolver:  Solving for k, Initial residual = 0.00567153, Final residual = 0.000472979, No Iterations 6
ExecutionTime = 0.249272 s  ClockTime = 0 s

Time = 83s

smoothSolver:  Solving for Ux, Initial residual = 0.00332095, Final residual = 0.000313649, No Iterations 5
smoothSolver:  Solving for Uy, Initial residual = 0.0142844, Final residual = 0.00112342, No Iterations 6
Pressure gradient source: uncorrected Ubar = 1.0004, pressure gradient = 1.93249
GAMG:  Solving for p, Initial residual = 0.000249741, Final residual = 2.45129e-05, No Iterations 12
time step continuity errors : sum local = 9.30424e-06, global = 1.19482e-17, cumulative = 2.50075e-16
Pressure gradient source: uncorrected Ubar = 1.00002, pressure gradient = 2.47436
smoothSolver:  Solving for omega, Initial residual = 0.000331497, Final residual = 2.591e-05, No Iterations 6
smoothSolver:  Solving for k, Initial residual = 0.00562623, Final residual = 0.000464798, No Iterations 6
ExecutionTime = 0.252212 s  ClockTime = 0 s

Time = 84s

smoothSolver:  Solving for Ux, Initial residual = 0.00330111, Final residual = 0.000312645, No Iterations 5
smoothSolver:  Solving for Uy, Initial residual = 0.0143969, Final residual = 0.0011482, No Iterations 6
Pressure gradient source: uncorrected Ubar = 1.0004, pressure gradient = 1.89527
GAMG:  Solving for p, Initial residual = 0.000243974, Final residual = 2.14859e-05, No Iterations 14
time step continuity errors : sum local = 7.9634e-06, global = -1.69398e-17, cumulative = 2.33135e-16
Pressure gradient source: uncorrected Ubar = 1.00002, pressure gradient = 2.44369
smoothSolver:  Solving for omega, Initial residual = 0.00032777, Final residual = 2.57247e-05, No Iterations 6
smoothSolver:  Solving for k, Initial residual = 0.005613, Final residual = 0.000469412, No Iterations 6
ExecutionTime = 0.255257 s  ClockTime = 0 s

Time = 85s

smoothSolver:  Solving for Ux, Initial residual = 0.00328238, Final residual = 0.000311654, No Iterations 5
smoothSolver:  Solving for Uy, Initial residual = 0.0143531, Final residual = 0.00115199, No Iterations 6
Pressure gradient source: uncorrected Ubar = 1.0004, pressure gradient = 1.86003
GAMG:  Solving for p, Initial residual = 0.000248982, Final residual = 2.14693e-05, No Iterations 14
time step continuity errors : sum local = 7.75758e-06, global = 1.17102e-17, cumulative = 2.44845e-16
Pressure gradient source: uncorrected Ubar = 1.00002, pressure gradient = 2.41207
smoothSolver:  Solving for omega, Initial residual = 0.000323852, Final residual = 2.51489e-05, No Iterations 6
smoothSolver:  Solving for k, Initial residual = 0.00557086, Final residual = 0.000461762, No Iterations 6
ExecutionTime = 0.258278 s  ClockTime = 0 s

Time = 86s

smoothSolver:  Solving for Ux, Initial residual = 0.00326442, Final residual = 0.000310836, No Iterations 5
smoothSolver:  Solving for Uy, Initial residual = 0.014429, Final residual = 0.00116084, No Iterations 6
Pressure gradient source: uncorrected Ubar = 1.0004, pressure gradient = 1.82219
GAMG:  Solving for p, Initial residual = 0.000232816, Final residual = 1.99761e-05, No Iterations 14
time step continuity errors : sum local = 7.23833e-06, global = 3.11793e-18, cumulative = 2.47963e-16
Pressure gradient source: uncorrected Ubar = 1.00002, pressure gradient = 2.37923
smoothSolver:  Solving for omega, Initial residual = 0.000320685, Final residual = 2.50643e-05, No Iterations 6
smoothSolver:  Solving for k, Initial residual = 0.00555237, Final residual = 0.0004645, No Iterations 6
ExecutionTime = 0.26129 s  ClockTime = 0 s

Time = 87s

smoothSolver:  Solving for Ux, Initial residual = 0.00324682, Final residual = 0.000310091, No Iterations 5
smoothSolver:  Solving for Uy, Initial residual = 0.0139923, Final residual = 0.00113464, No Iterations 6
Pressure gradient source: uncorrected Ubar = 1.0004, pressure gradient = 1.78959
GAMG:  Solving for p, Initial residual = 0.000219808, Final residual = 2.05684e-05, No Iterations 14
time step continuity errors : sum local = 7.11518e-06, global = -1.64028e-17, cumulative = 2.3156e-16
Pressure gradient source: uncorrected Ubar = 1.00002, pressure gradient = 2.34621
smoothSolver:  Solving for omega, Initial residual = 0.00031825, Final residual = 2.50635e-05, No Iterations 6
smoothSolver:  Solving for k, Initial residual = 0.00552013, Final residual = 0.000461468, No Iterations 6
ExecutionTime = 0.264351 s  ClockTime = 0 s

Time = 88s

smoothSolver:  Solving for Ux, Initial residual = 0.0032293, Final residual = 0.000309322, No Iterations 5
smoothSolver:  Solving for Uy, Initial residual = 0.0139825, Final residual = 0.00113397, No Iterations 6
Pressure gradient source: uncorrected Ubar = 1.00039, pressure gradient = 1.75545
GAMG:  Solving for p, Initial residual = 0.000211261, Final residual = 1.76606e-05, No Iterations 16
time step continuity errors : sum local = 6.00247e-06, global = 2.92455e-17, cumulative = 2.60806e-16
Pressure gradient source: uncorrected Ubar = 1.00002, pressure gradient = 2.31279
smoothSolver:  Solving for omega, Initial residual = 0.000314772, Final residual = 2.4606e-05, No Iterations 6
smoothSolver:  Solving for k, Initial residual = 0.00548299, Final residual = 0.00045876, No Iterations 6
ExecutionTime = 0.267461 s  ClockTime = 0 s

Time = 89s

smoothSolver:  Solving for Ux, Initial residual = 0.00321266, Final residual = 0.000308592, No Iterations 5
smoothSolver:  Solving for Uy, Initial residual = 0.0140815, Final residual = 0.00112323, No Iterations 6
Pressure gradient source: uncorrected Ubar = 1.00039, pressure gradient = 1.71509
GAMG:  Solving for p, Initial residual = 0.000259754, Final residual = 2.47659e-05, No Iterations 12
time step continuity errors : sum local = 7.85191e-06, global = 1.33615e-17, cumulative = 2.74167e-16
Pressure gradient source: uncorrected Ubar = 1.00002, pressure gradient = 2.27801
[...]
smoothSolver:  Solving for omega, Initial residual = 7.24297e-06, Final residual = 7.24297e-06, No Iterations 0
smoothSolver:  Solving for k, Initial residual = 4.43025e-06, Final residual = 4.43025e-06, No Iterations 0
ExecutionTime = 7.14978 s  ClockTime = 7 s

Time = 2660s

smoothSolver:  Solving for Ux, Initial residual = 9.22278e-06, Final residual = 9.22278e-06, No Iterations 0
smoothSolver:  Solving for Uy, Initial residual = 0.000127886, Final residual = 9.40211e-06, No Iterations 5
Pressure gradient source: uncorrected Ubar = 1, pressure gradient = 0.00413852
GAMG:  Solving for p, Initial residual = 1.33925e-05, Final residual = 1.3385e-06, No Iterations 16
time step continuity errors : sum local = 2.34991e-10, global = -1.01702e-18, cumulative = 3.42394e-16
Pressure gradient source: uncorrected Ubar = 1, pressure gradient = 0.00413852
smoothSolver:  Solving for omega, Initial residual = 7.243e-06, Final residual = 7.243e-06, No Iterations 0
smoothSolver:  Solving for k, Initial residual = 4.40353e-06, Final residual = 4.40353e-06, No Iterations 0
ExecutionTime = 7.15273 s  ClockTime = 7 s

Time = 2661s

smoothSolver:  Solving for Ux, Initial residual = 9.21371e-06, Final residual = 9.21371e-06, No Iterations 0
smoothSolver:  Solving for Uy, Initial residual = 0.000127662, Final residual = 9.31208e-06, No Iterations 5
Pressure gradient source: uncorrected Ubar = 1, pressure gradient = 0.00413852
GAMG:  Solving for p, Initial residual = 1.31399e-05, Final residual = 1.25528e-06, No Iterations 16
time step continuity errors : sum local = 2.20048e-10, global = 4.74531e-18, cumulative = 3.47139e-16
Pressure gradient source: uncorrected Ubar = 1, pressure gradient = 0.00413853
smoothSolver:  Solving for omega, Initial residual = 7.24303e-06, Final residual = 7.24303e-06, No Iterations 0
smoothSolver:  Solving for k, Initial residual = 4.3788e-06, Final residual = 4.3788e-06, No Iterations 0
ExecutionTime = 7.15565 s  ClockTime = 7 s

Time = 2662s

smoothSolver:  Solving for Ux, Initial residual = 9.20466e-06, Final residual = 9.20466e-06, No Iterations 0
smoothSolver:  Solving for Uy, Initial residual = 0.000126252, Final residual = 9.13555e-06, No Iterations 5
Pressure gradient source: uncorrected Ubar = 1, pressure gradient = 0.00413853
GAMG:  Solving for p, Initial residual = 1.29151e-05, Final residual = 1.19401e-06, No Iterations 16
time step continuity errors : sum local = 2.09372e-10, global = 4.85847e-18, cumulative = 3.51998e-16
Pressure gradient source: uncorrected Ubar = 1, pressure gradient = 0.00413853
smoothSolver:  Solving for omega, Initial residual = 7.24306e-06, Final residual = 7.24306e-06, No Iterations 0
smoothSolver:  Solving for k, Initial residual = 4.35516e-06, Final residual = 4.35516e-06, No Iterations 0
ExecutionTime = 7.15857 s  ClockTime = 7 s

Time = 2663s

smoothSolver:  Solving for Ux, Initial residual = 9.19562e-06, Final residual = 9.19562e-06, No Iterations 0
smoothSolver:  Solving for Uy, Initial residual = 0.000124984, Final residual = 8.9826e-06, No Iterations 5
Pressure gradient source: uncorrected Ubar = 1, pressure gradient = 0.00413853
GAMG:  Solving for p, Initial residual = 1.26819e-05, Final residual = 1.13536e-06, No Iterations 16
time step continuity errors : sum local = 1.99297e-10, global = 8.80739e-19, cumulative = 3.52878e-16
Pressure gradient source: uncorrected Ubar = 1, pressure gradient = 0.00413853
smoothSolver:  Solving for omega, Initial residual = 7.2431e-06, Final residual = 7.2431e-06, No Iterations 0
smoothSolver:  Solving for k, Initial residual = 4.33192e-06, Final residual = 4.33192e-06, No Iterations 0
ExecutionTime = 7.16148 s  ClockTime = 7 s

Time = 2664s

smoothSolver:  Solving for Ux, Initial residual = 9.18659e-06, Final residual = 9.18659e-06, No Iterations 0
smoothSolver:  Solving for Uy, Initial residual = 0.00012389, Final residual = 8.83767e-06, No Iterations 5
Pressure gradient source: uncorrected Ubar = 1, pressure gradient = 0.00413853
GAMG:  Solving for p, Initial residual = 1.24538e-05, Final residual = 1.08109e-06, No Iterations 16
time step continuity errors : sum local = 1.90386e-10, global = -1.97853e-18, cumulative = 3.509e-16
Pressure gradient source: uncorrected Ubar = 1, pressure gradient = 0.00413853
smoothSolver:  Solving for omega, Initial residual = 7.24313e-06, Final residual = 7.24313e-06, No Iterations 0
smoothSolver:  Solving for k, Initial residual = 4.31041e-06, Final residual = 4.31041e-06, No Iterations 0
ExecutionTime = 7.16446 s  ClockTime = 7 s

Time = 2665s

smoothSolver:  Solving for Ux, Initial residual = 9.17759e-06, Final residual = 9.17759e-06, No Iterations 0
smoothSolver:  Solving for Uy, Initial residual = 0.000122827, Final residual = 8.69652e-06, No Iterations 5
Pressure gradient source: uncorrected Ubar = 1, pressure gradient = 0.00413853
GAMG:  Solving for p, Initial residual = 1.22334e-05, Final residual = 1.02863e-06, No Iterations 16
time step continuity errors : sum local = 1.81503e-10, global = -4.36552e-18, cumulative = 3.46534e-16
Pressure gradient source: uncorrected Ubar = 1, pressure gradient = 0.00413854
smoothSolver:  Solving for omega, Initial residual = 7.24316e-06, Final residual = 7.24316e-06, No Iterations 0
smoothSolver:  Solving for k, Initial residual = 4.29142e-06, Final residual = 4.29142e-06, No Iterations 0
ExecutionTime = 7.16738 s  ClockTime = 7 s

Time = 2666s

smoothSolver:  Solving for Ux, Initial residual = 9.16859e-06, Final residual = 9.16859e-06, No Iterations 0
smoothSolver:  Solving for Uy, Initial residual = 0.000121721, Final residual = 8.55471e-06, No Iterations 5
Pressure gradient source: uncorrected Ubar = 1, pressure gradient = 0.00413854
GAMG:  Solving for p, Initial residual = 1.2023e-05, Final residual = 1.19265e-06, No Iterations 15
time step continuity errors : sum local = 2.06274e-10, global = 3.77185e-18, cumulative = 3.50306e-16
Pressure gradient source: uncorrected Ubar = 1, pressure gradient = 0.00413854
smoothSolver:  Solving for omega, Initial residual = 7.24319e-06, Final residual = 7.24319e-06, No Iterations 0
smoothSolver:  Solving for k, Initial residual = 4.2734e-06, Final residual = 4.2734e-06, No Iterations 0
ExecutionTime = 7.17025 s  ClockTime = 7 s

Time = 2667s

smoothSolver:  Solving for Ux, Initial residual = 9.15961e-06, Final residual = 9.15961e-06, No Iterations 0
smoothSolver:  Solving for Uy, Initial residual = 0.000120905, Final residual = 8.42998e-06, No Iterations 5
Pressure gradient source: uncorrected Ubar = 1, pressure gradient = 0.00413854
GAMG:  Solving for p, Initial residual = 1.15636e-05, Final residual = 9.46244e-07, No Iterations 16
time step continuity errors : sum local = 1.67548e-10, global = -2.67578e-19, cumulative = 3.50039e-16
Pressure gradient source: uncorrected Ubar = 1, pressure gradient = 0.00413854
smoothSolver:  Solving for omega, Initial residual = 7.24323e-06, Final residual = 7.24323e-06, No Iterations 0
smoothSolver:  Solving for k, Initial residual = 4.25591e-06, Final residual = 4.25591e-06, No Iterations 0
ExecutionTime = 7.17332 s  ClockTime = 7 s

Time = 2668s

smoothSolver:  Solving for Ux, Initial residual = 9.15065e-06, Final residual = 9.15065e-06, No Iterations 0
smoothSolver:  Solving for Uy, Initial residual = 0.000119328, Final residual = 8.26699e-06, No Iterations 5
Pressure gradient source: uncorrected Ubar = 1, pressure gradient = 0.00413854
GAMG:  Solving for p, Initial residual = 1.15283e-05, Final residual = 1.09528e-06, No Iterations 14
time step continuity errors : sum local = 1.926e-10, global = -5.44356e-19, cumulative = 3.49494e-16
Pressure gradient source: uncorrected Ubar = 1, pressure gradient = 0.00413854
smoothSolver:  Solving for omega, Initial residual = 7.24326e-06, Final residual = 7.24326e-06, No Iterations 0
smoothSolver:  Solving for k, Initial residual = 4.2393e-06, Final residual = 4.2393e-06, No Iterations 0
ExecutionTime = 7.17616 s  ClockTime = 7 s

Time = 2669s

smoothSolver:  Solving for Ux, Initial residual = 9.1417e-06, Final residual = 9.1417e-06, No Iterations 0
smoothSolver:  Solving for Uy, Initial residual = 0.000118407, Final residual = 8.15047e-06, No Iterations 5
Pressure gradient source: uncorrected Ubar = 1, pressure gradient = 0.00413854
GAMG:  Solving for p, Initial residual = 1.14428e-05, Final residual = 1.05613e-06, No Iterations 14
time step continuity errors : sum local = 1.86688e-10, global = -1.25695e-17, cumulative = 3.36925e-16
Pressure gradient source: uncorrected Ubar = 1, pressure gradient = 0.00413855
smoothSolver:  Solving for omega, Initial residual = 7.24329e-06, Final residual = 7.24329e-06, No Iterations 0
smoothSolver:  Solving for k, Initial residual = 4.22443e-06, Final residual = 4.22443e-06, No Iterations 0
ExecutionTime = 7.17899 s  ClockTime = 7 s

Time = 2670s

smoothSolver:  Solving for Ux, Initial residual = 9.13276e-06, Final residual = 9.13276e-06, No Iterations 0
smoothSolver:  Solving for Uy, Initial residual = 0.000116995, Final residual = 7.9977e-06, No Iterations 5
Pressure gradient source: uncorrected Ubar = 1, pressure gradient = 0.00413855
GAMG:  Solving for p, Initial residual = 1.13233e-05, Final residual = 9.99426e-07, No Iterations 14
time step continuity errors : sum local = 1.77219e-10, global = 3.75252e-18, cumulative = 3.40677e-16
Pressure gradient source: uncorrected Ubar = 1, pressure gradient = 0.00413855
smoothSolver:  Solving for omega, Initial residual = 7.24332e-06, Final residual = 7.24332e-06, No Iterations 0
smoothSolver:  Solving for k, Initial residual = 4.21077e-06, Final residual = 4.21077e-06, No Iterations 0
ExecutionTime = 7.18185 s  ClockTime = 7 s

Time = 2671s

smoothSolver:  Solving for Ux, Initial residual = 9.12384e-06, Final residual = 9.12384e-06, No Iterations 0
smoothSolver:  Solving for Uy, Initial residual = 0.000115447, Final residual = 7.84073e-06, No Iterations 5
Pressure gradient source: uncorrected Ubar = 1, pressure gradient = 0.00413855
GAMG:  Solving for p, Initial residual = 1.11768e-05, Final residual = 9.35362e-07, No Iterations 14
time step continuity errors : sum local = 1.66103e-10, global = -4.15107e-18, cumulative = 3.36526e-16
Pressure gradient source: uncorrected Ubar = 1, pressure gradient = 0.00413855
smoothSolver:  Solving for omega, Initial residual = 7.24335e-06, Final residual = 7.24335e-06, No Iterations 0
smoothSolver:  Solving for k, Initial residual = 4.19747e-06, Final residual = 4.19747e-06, No Iterations 0
ExecutionTime = 7.18468 s  ClockTime = 7 s

Time = 2672s

smoothSolver:  Solving for Ux, Initial residual = 9.11493e-06, Final residual = 9.11493e-06, No Iterations 0
smoothSolver:  Solving for Uy, Initial residual = 0.000113993, Final residual = 7.68984e-06, No Iterations 5
Pressure gradient source: uncorrected Ubar = 1, pressure gradient = 0.00413855
GAMG:  Solving for p, Initial residual = 1.10195e-05, Final residual = 1.08318e-06, No Iterations 12
time step continuity errors : sum local = 1.90934e-10, global = -3.17786e-18, cumulative = 3.33348e-16
Pressure gradient source: uncorrected Ubar = 1, pressure gradient = 0.00413855
smoothSolver:  Solving for omega, Initial residual = 7.24339e-06, Final residual = 7.24339e-06, No Iterations 0
smoothSolver:  Solving for k, Initial residual = 4.1852e-06, Final residual = 4.1852e-06, No Iterations 0
ExecutionTime = 7.18742 s  ClockTime = 7 s

Time = 2673s

smoothSolver:  Solving for Ux, Initial residual = 9.10604e-06, Final residual = 9.10604e-06, No Iterations 0
smoothSolver:  Solving for Uy, Initial residual = 0.000112946, Final residual = 7.56462e-06, No Iterations 5
Pressure gradient source: uncorrected Ubar = 1, pressure gradient = 0.00413855
GAMG:  Solving for p, Initial residual = 1.08938e-05, Final residual = 1.0364e-06, No Iterations 12
time step continuity errors : sum local = 1.82084e-10, global = 4.66564e-18, cumulative = 3.38014e-16
Pressure gradient source: uncorrected Ubar = 1, pressure gradient = 0.00413856
smoothSolver:  Solving for omega, Initial residual = 7.24342e-06, Final residual = 7.24342e-06, No Iterations 0
smoothSolver:  Solving for k, Initial residual = 4.17572e-06, Final residual = 4.17572e-06, No Iterations 0
ExecutionTime = 7.1902 s  ClockTime = 7 s

Time = 2674s

smoothSolver:  Solving for Ux, Initial residual = 9.09716e-06, Final residual = 9.09716e-06, No Iterations 0
smoothSolver:  Solving for Uy, Initial residual = 0.000111336, Final residual = 7.41135e-06, No Iterations 5
Pressure gradient source: uncorrected Ubar = 1, pressure gradient = 0.00413856
GAMG:  Solving for p, Initial residual = 1.0777e-05, Final residual = 9.68827e-07, No Iterations 12
time step continuity errors : sum local = 1.7049e-10, global = -1.83857e-18, cumulative = 3.36175e-16
Pressure gradient source: uncorrected Ubar = 1, pressure gradient = 0.00413856
smoothSolver:  Solving for omega, Initial residual = 7.24345e-06, Final residual = 7.24345e-06, No Iterations 0
smoothSolver:  Solving for k, Initial residual = 4.16778e-06, Final residual = 4.16778e-06, No Iterations 0
ExecutionTime = 7.19303 s  ClockTime = 7 s

Time = 2675s

smoothSolver:  Solving for Ux, Initial residual = 9.0883e-06, Final residual = 9.0883e-06, No Iterations 0
smoothSolver:  Solving for Uy, Initial residual = 0.000109745, Final residual = 7.25971e-06, No Iterations 5
Pressure gradient source: uncorrected Ubar = 1, pressure gradient = 0.00413856
GAMG:  Solving for p, Initial residual = 1.06403e-05, Final residual = 1.04896e-06, No Iterations 11
time step continuity errors : sum local = 1.8334e-10, global = -1.06895e-18, cumulative = 3.35106e-16
Pressure gradient source: uncorrected Ubar = 1, pressure gradient = 0.00413856
smoothSolver:  Solving for omega, Initial residual = 7.24348e-06, Final residual = 7.24348e-06, No Iterations 0
smoothSolver:  Solving for k, Initial residual = 4.16069e-06, Final residual = 4.16069e-06, No Iterations 0
ExecutionTime = 7.19585 s  ClockTime = 7 s

Time = 2676s

smoothSolver:  Solving for Ux, Initial residual = 9.07946e-06, Final residual = 9.07946e-06, No Iterations 0
smoothSolver:  Solving for Uy, Initial residual = 0.00010846, Final residual = 7.12167e-06, No Iterations 5
Pressure gradient source: uncorrected Ubar = 1, pressure gradient = 0.00413856
GAMG:  Solving for p, Initial residual = 1.01841e-05, Final residual = 9.48203e-07, No Iterations 11
time step continuity errors : sum local = 1.66002e-10, global = 9.13586e-18, cumulative = 3.44242e-16
Pressure gradient source: uncorrected Ubar = 1, pressure gradient = 0.00413857
smoothSolver:  Solving for omega, Initial residual = 7.24351e-06, Final residual = 7.24351e-06, No Iterations 0
smoothSolver:  Solving for k, Initial residual = 4.1548e-06, Final residual = 4.1548e-06, No Iterations 0
ExecutionTime = 7.19856 s  ClockTime = 7 s

Time = 2677s

smoothSolver:  Solving for Ux, Initial residual = 9.07063e-06, Final residual = 9.07063e-06, No Iterations 0
smoothSolver:  Solving for Uy, Initial residual = 0.000106911, Final residual = 6.98084e-06, No Iterations 5
Pressure gradient source: uncorrected Ubar = 1, pressure gradient = 0.00413857
GAMG:  Solving for p, Initial residual = 9.95239e-06, Final residual = 8.86121e-07, No Iterations 11
time step continuity errors : sum local = 1.55031e-10, global = -5.10925e-18, cumulative = 3.39133e-16
Pressure gradient source: uncorrected Ubar = 1, pressure gradient = 0.00413857
smoothSolver:  Solving for omega, Initial residual = 7.24354e-06, Final residual = 7.24354e-06, No Iterations 0
smoothSolver:  Solving for k, Initial residual = 4.15002e-06, Final residual = 4.15002e-06, No Iterations 0
ExecutionTime = 7.20125 s  ClockTime = 7 s

Time = 2678s

smoothSolver:  Solving for Ux, Initial residual = 9.06181e-06, Final residual = 9.06181e-06, No Iterations 0
smoothSolver:  Solving for Uy, Initial residual = 0.000105258, Final residual = 6.83777e-06, No Iterations 5
Pressure gradient source: uncorrected Ubar = 1, pressure gradient = 0.00413857
GAMG:  Solving for p, Initial residual = 9.77979e-06, Final residual = 8.19877e-07, No Iterations 11
time step continuity errors : sum local = 1.43624e-10, global = -8.63325e-18, cumulative = 3.305e-16
Pressure gradient source: uncorrected Ubar = 1, pressure gradient = 0.00413857
smoothSolver:  Solving for omega, Initial residual = 7.24357e-06, Final residual = 7.24357e-06, No Iterations 0
smoothSolver:  Solving for k, Initial residual = 4.14604e-06, Final residual = 4.14604e-06, No Iterations 0
ExecutionTime = 7.20398 s  ClockTime = 7 s

Time = 2679s

smoothSolver:  Solving for Ux, Initial residual = 9.05301e-06, Final residual = 9.05301e-06, No Iterations 0
smoothSolver:  Solving for Uy, Initial residual = 0.000103585, Final residual = 6.69462e-06, No Iterations 5
Pressure gradient source: uncorrected Ubar = 1, pressure gradient = 0.00413857
GAMG:  Solving for p, Initial residual = 9.63203e-06, Final residual = 9.78954e-07, No Iterations 9
time step continuity errors : sum local = 1.70754e-10, global = -1.53705e-18, cumulative = 3.28963e-16
Pressure gradient source: uncorrected Ubar = 1, pressure gradient = 0.00413857
smoothSolver:  Solving for omega, Initial residual = 7.24361e-06, Final residual = 7.24361e-06, No Iterations 0
smoothSolver:  Solving for k, Initial residual = 4.14397e-06, Final residual = 4.14397e-06, No Iterations 0
ExecutionTime = 7.20659 s  ClockTime = 7 s

Time = 2680s

smoothSolver:  Solving for Ux, Initial residual = 9.04423e-06, Final residual = 9.04423e-06, No Iterations 0
smoothSolver:  Solving for Uy, Initial residual = 0.000101808, Final residual = 6.54262e-06, No Iterations 5
Pressure gradient source: uncorrected Ubar = 1, pressure gradient = 0.00413857
GAMG:  Solving for p, Initial residual = 9.4399e-06, Final residual = 9.61172e-07, No Iterations 9
time step continuity errors : sum local = 1.68567e-10, global = -6.35255e-18, cumulative = 3.2261e-16
Pressure gradient source: uncorrected Ubar = 1, pressure gradient = 0.00413858
smoothSolver:  Solving for omega, Initial residual = 7.24364e-06, Final residual = 7.24364e-06, No Iterations 0
smoothSolver:  Solving for k, Initial residual = 4.14288e-06, Final residual = 4.14288e-06, No Iterations 0
ExecutionTime = 7.2092 s  ClockTime = 7 s

Time = 2681s

smoothSolver:  Solving for Ux, Initial residual = 9.03545e-06, Final residual = 9.03545e-06, No Iterations 0
smoothSolver:  Solving for Uy, Initial residual = 0.000100017, Final residual = 6.40705e-06, No Iterations 5
Pressure gradient source: uncorrected Ubar = 1, pressure gradient = 0.00413858
GAMG:  Solving for p, Initial residual = 9.27945e-06, Final residual = 9.12176e-07, No Iterations 9
time step continuity errors : sum local = 1.60174e-10, global = -2.75214e-18, cumulative = 3.19858e-16
Pressure gradient source: uncorrected Ubar = 1, pressure gradient = 0.00413858
smoothSolver:  Solving for omega, Initial residual = 7.24367e-06, Final residual = 7.24367e-06, No Iterations 0
smoothSolver:  Solving for k, Initial residual = 4.14301e-06, Final residual = 4.14301e-06, No Iterations 0
ExecutionTime = 7.21193 s  ClockTime = 7 s

Time = 2682s

smoothSolver:  Solving for Ux, Initial residual = 9.02669e-06, Final residual = 9.02669e-06, No Iterations 0
smoothSolver:  Solving for Uy, Initial residual = 9.82681e-05, Final residual = 6.27462e-06, No Iterations 5
Pressure gradient source: uncorrected Ubar = 1, pressure gradient = 0.00413858
GAMG:  Solving for p, Initial residual = 9.12964e-06, Final residual = 8.50165e-07, No Iterations 9
time step continuity errors : sum local = 1.48944e-10, global = 2.01509e-18, cumulative = 3.21873e-16
Pressure gradient source: uncorrected Ubar = 1, pressure gradient = 0.00413858
smoothSolver:  Solving for omega, Initial residual = 7.2437e-06, Final residual = 7.2437e-06, No Iterations 0
smoothSolver:  Solving for k, Initial residual = 4.14415e-06, Final residual = 4.14415e-06, No Iterations 0
ExecutionTime = 7.21464 s  ClockTime = 7 s


SIMPLE solution converged in 2682 iterations

End

