/*---------------------------------------------------------------------------*\
  =========                 |
  \\      /  F ield         | OpenFOAM: The Open Source CFD Toolbox
   \\    /   O peration     | Website:  https://openfoam.org
    \\  /    A nd           | Version:  10
     \\/     M anipulation  |
\*---------------------------------------------------------------------------*/
Build  : 10-e450dce21ea5
Exec   : blockMesh
Date   : Feb 20 2023
Time   : 14:16:34
Host   : "w530-R9YK46P"
PID    : 18955
I/O    : uncollated
Case   : /home/jdmezazeron/gitDanielMezaZ/turbulenceVisualized/Data/SimulationFiles/K34_Re4688
nProcs : 1
sigFpe : Enabling floating point exception trapping (FOAM_SIGFPE).
fileModificationChecking : Monitoring run-time modified files using timeStampMaster (fileModificationSkew 10)
allowSystemOperations : Allowing user-supplied system call operations

// * * * * * * * * * * * * * * * * * * * * * * * * * * * * * * * * * * * * * //
Create time

Deleting polyMesh directory
    "/home/jdmezazeron/gitDanielMezaZ/turbulenceVisualized/Data/SimulationFiles/K34_Re4688/constant/polyMesh"
Reading "blockMeshDict"

Creating block mesh from
    "system/blockMeshDict"
Creating block edges
No non-planar block faces defined
Creating topology blocks
Creating topology patches

Creating block mesh topology

Check topology

	Basic statistics
		Number of internal faces : 0
		Number of boundary faces : 6
		Number of defined boundary faces : 6
		Number of undefined boundary faces : 0
	Checking patch -> block consistency

Creating block offsets
Creating merge list .

Creating polyMesh from blockMesh
Creating patches
Creating cells
Creating points with scale 1
    Block 0 cell size :
        i : 0.5
        j : 0.00461374 .. 0.018455
        k : 2

Detected cyclic patches; ordering boundary faces

Writing polyMesh
----------------
Mesh Information
----------------
  boundingBox: (-1 0 -1) (1 1 1)
  nPoints: 1010
  nCells: 400
  nFaces: 1704
  nInternalFaces: 696
----------------
Patches
----------------
  patch 0 (start: 696 size: 100) name: inlet
  patch 1 (start: 796 size: 100) name: outlet
  patch 2 (start: 896 size: 4) name: fixedWalls-bottom
  patch 3 (start: 900 size: 4) name: fixedWalls-top
  patch 4 (start: 904 size: 800) name: frontAndBack

End

/*---------------------------------------------------------------------------*\
  =========                 |
  \\      /  F ield         | OpenFOAM: The Open Source CFD Toolbox
   \\    /   O peration     | Website:  https://openfoam.org
    \\  /    A nd           | Version:  10
     \\/     M anipulation  |
\*---------------------------------------------------------------------------*/
Build  : 10-e450dce21ea5
Exec   : simpleFoam
Date   : Feb 20 2023
Time   : 14:16:34
Host   : "w530-R9YK46P"
PID    : 18956
I/O    : uncollated
Case   : /home/jdmezazeron/gitDanielMezaZ/turbulenceVisualized/Data/SimulationFiles/K34_Re4688
nProcs : 1
sigFpe : Enabling floating point exception trapping (FOAM_SIGFPE).
fileModificationChecking : Monitoring run-time modified files using timeStampMaster (fileModificationSkew 10)
allowSystemOperations : Allowing user-supplied system call operations

// * * * * * * * * * * * * * * * * * * * * * * * * * * * * * * * * * * * * * //
Create time

Create mesh for time = 0


SIMPLE: Convergence criteria found
        U: tolerance 0.0001
        p: tolerance 0.01
        omega: tolerance 0.0001

Reading field p

Reading field U

Reading/calculating face flux field phi

Selecting viscosity model Newtonian
Selecting turbulence model type RAS
Selecting RAS turbulence model kOmegaSST
Selecting patchDistMethod meshWave
RAS
{
    RASModel        kOmegaSST;
    turbulence      on;
    printCoeffs     on;
    alphaK1         0.85;
    alphaK2         1;
    alphaOmega1     0.5;
    alphaOmega2     0.856;
    gamma1          0.555556;
    gamma2          0.44;
    beta1           0.075;
    beta2           0.0828;
    betaStar        0.09;
    a1              0.31;
    b1              1;
    c1              10;
    F3              false;
}

No MRF models present

--> FOAM Warning : Creating fvModels from "system/fvOptions" rather than constant/fvModels
No fvModels present
--> FOAM Warning : Creating fvConstraints from "system/fvOptions"

Selecting finite volume constraint type meanVelocityForce
    Name: momentumSource
    - selecting all cells
    - selected 400 cell(s) with volume 4
    Initial pressure gradient = 0


Starting time loop

turbulenceFields stressComponents: storing fields:
    R

Time = 1s

smoothSolver:  Solving for Ux, Initial residual = 0, Final residual = 0, No Iterations 0
smoothSolver:  Solving for Uy, Initial residual = 0, Final residual = 0, No Iterations 0
Pressure gradient source: uncorrected Ubar = 0, pressure gradient = 1129.4
GAMG:  Solving for p, Initial residual = 0.999996, Final residual = 0.059154, No Iterations 3
time step continuity errors : sum local = 9.06587e-17, global = 5.14305e-18, cumulative = 5.14305e-18
Pressure gradient source: uncorrected Ubar = 0.884653, pressure gradient = 130.272
smoothSolver:  Solving for omega, Initial residual = 0.247311, Final residual = 0.0149427, No Iterations 3
smoothSolver:  Solving for k, Initial residual = 1, Final residual = 0.0712573, No Iterations 4
ExecutionTime = 0.013969 s  ClockTime = 0 s

Time = 2s

smoothSolver:  Solving for Ux, Initial residual = 0.992967, Final residual = 0.0954973, No Iterations 6
smoothSolver:  Solving for Uy, Initial residual = 1, Final residual = 0.0817891, No Iterations 5
Pressure gradient source: uncorrected Ubar = 61.0999, pressure gradient = -966.846
GAMG:  Solving for p, Initial residual = 1, Final residual = 0.0870724, No Iterations 16
time step continuity errors : sum local = 0.0479775, global = 6.15285e-17, cumulative = 6.66715e-17
Pressure gradient source: uncorrected Ubar = 8.83353, pressure gradient = -12.7284
smoothSolver:  Solving for omega, Initial residual = 0.161502, Final residual = 0.00267147, No Iterations 1
smoothSolver:  Solving for k, Initial residual = 0.797209, Final residual = 0.0490791, No Iterations 2
ExecutionTime = 0.017093 s  ClockTime = 0 s

Time = 3s

smoothSolver:  Solving for Ux, Initial residual = 0.377686, Final residual = 0.0303285, No Iterations 6
smoothSolver:  Solving for Uy, Initial residual = 0.64178, Final residual = 0.0260638, No Iterations 2
Pressure gradient source: uncorrected Ubar = -1.72344, pressure gradient = 98.6197
GAMG:  Solving for p, Initial residual = 0.207869, Final residual = 0.0174168, No Iterations 9
time step continuity errors : sum local = 0.0214366, global = -3.53518e-17, cumulative = 3.13198e-17
Pressure gradient source: uncorrected Ubar = 0.65436, pressure gradient = 1.40318
smoothSolver:  Solving for omega, Initial residual = 0.0245561, Final residual = 0.00197884, No Iterations 1
smoothSolver:  Solving for k, Initial residual = 0.543628, Final residual = 0.035266, No Iterations 2
ExecutionTime = 0.019771 s  ClockTime = 0 s

Time = 4s

smoothSolver:  Solving for Ux, Initial residual = 0.107127, Final residual = 0.00960707, No Iterations 4
smoothSolver:  Solving for Uy, Initial residual = 0.38443, Final residual = 0.0333648, No Iterations 2
Pressure gradient source: uncorrected Ubar = 1.12478, pressure gradient = -1.90802
GAMG:  Solving for p, Initial residual = 0.134237, Final residual = 0.0111946, No Iterations 11
time step continuity errors : sum local = 0.0320448, global = -1.97325e-17, cumulative = 1.15873e-17
Pressure gradient source: uncorrected Ubar = 1.01838, pressure gradient = 0.915542
smoothSolver:  Solving for omega, Initial residual = 0.0144551, Final residual = 0.000582231, No Iterations 2
smoothSolver:  Solving for k, Initial residual = 0.67426, Final residual = 0.0302071, No Iterations 2
ExecutionTime = 0.022542 s  ClockTime = 0 s

Time = 5s

smoothSolver:  Solving for Ux, Initial residual = 0.112778, Final residual = 0.00818536, No Iterations 4
smoothSolver:  Solving for Uy, Initial residual = 0.415348, Final residual = 0.0365856, No Iterations 2
Pressure gradient source: uncorrected Ubar = 0.956922, pressure gradient = 2.14893
GAMG:  Solving for p, Initial residual = 0.220614, Final residual = 0.0210239, No Iterations 9
time step continuity errors : sum local = 0.0528306, global = 4.22771e-17, cumulative = 5.38644e-17
Pressure gradient source: uncorrected Ubar = 0.995737, pressure gradient = 1.03761
smoothSolver:  Solving for omega, Initial residual = 0.0353029, Final residual = 0.00169219, No Iterations 2
bounding omega, min: -0.260733 max: 6413.04 average: 136.236
smoothSolver:  Solving for k, Initial residual = 0.716708, Final residual = 0.0172054, No Iterations 2
ExecutionTime = 0.025309 s  ClockTime = 0 s

Time = 6s

smoothSolver:  Solving for Ux, Initial residual = 0.11238, Final residual = 0.00823557, No Iterations 3
smoothSolver:  Solving for Uy, Initial residual = 0.522634, Final residual = 0.0469098, No Iterations 2
Pressure gradient source: uncorrected Ubar = 0.925038, pressure gradient = 3.54435
GAMG:  Solving for p, Initial residual = 0.50713, Final residual = 0.0461012, No Iterations 13
time step continuity errors : sum local = 0.0764258, global = 1.71575e-17, cumulative = 7.10219e-17
Pressure gradient source: uncorrected Ubar = 0.993934, pressure gradient = 1.24047
smoothSolver:  Solving for omega, Initial residual = 0.0859785, Final residual = 0.00267766, No Iterations 2
bounding omega, min: -1.97373 max: 6413.04 average: 160.561
smoothSolver:  Solving for k, Initial residual = 0.438562, Final residual = 0.00890858, No Iterations 2
ExecutionTime = 0.028216 s  ClockTime = 0 s

Time = 7s

smoothSolver:  Solving for Ux, Initial residual = 0.103063, Final residual = 0.00703368, No Iterations 3
smoothSolver:  Solving for Uy, Initial residual = 0.517796, Final residual = 0.0210003, No Iterations 3
Pressure gradient source: uncorrected Ubar = 0.893703, pressure gradient = 5.80744
GAMG:  Solving for p, Initial residual = 0.522459, Final residual = 0.0299407, No Iterations 9
time step continuity errors : sum local = 0.079177, global = 1.21427e-16, cumulative = 1.92449e-16
Pressure gradient source: uncorrected Ubar = 0.988852, pressure gradient = 1.71943
smoothSolver:  Solving for omega, Initial residual = 0.128459, Final residual = 0.0112751, No Iterations 1
smoothSolver:  Solving for k, Initial residual = 0.250113, Final residual = 0.00490544, No Iterations 2
ExecutionTime = 0.030921 s  ClockTime = 0 s

Time = 8s

smoothSolver:  Solving for Ux, Initial residual = 0.101601, Final residual = 0.00746612, No Iterations 3
smoothSolver:  Solving for Uy, Initial residual = 0.456956, Final residual = 0.0435716, No Iterations 2
Pressure gradient source: uncorrected Ubar = 0.934095, pressure gradient = 5.13073
GAMG:  Solving for p, Initial residual = 0.35847, Final residual = 0.0347039, No Iterations 11
time step continuity errors : sum local = 0.152102, global = -1.47451e-17, cumulative = 1.77704e-16
Pressure gradient source: uncorrected Ubar = 0.986585, pressure gradient = 2.41382
smoothSolver:  Solving for omega, Initial residual = 0.093721, Final residual = 0.00179108, No Iterations 2
smoothSolver:  Solving for k, Initial residual = 0.228158, Final residual = 0.00866605, No Iterations 2
ExecutionTime = 0.033735 s  ClockTime = 0 s

Time = 9s

smoothSolver:  Solving for Ux, Initial residual = 0.0782128, Final residual = 0.00651451, No Iterations 3
smoothSolver:  Solving for Uy, Initial residual = 0.399892, Final residual = 0.0188123, No Iterations 3
Pressure gradient source: uncorrected Ubar = 0.927633, pressure gradient = 6.35015
GAMG:  Solving for p, Initial residual = 0.233425, Final residual = 0.0213041, No Iterations 8
time step continuity errors : sum local = 0.158866, global = -3.04119e-17, cumulative = 1.47292e-16
Pressure gradient source: uncorrected Ubar = 0.985183, pressure gradient = 3.2198
smoothSolver:  Solving for omega, Initial residual = 0.0479931, Final residual = 0.00117642, No Iterations 2
smoothSolver:  Solving for k, Initial residual = 0.201018, Final residual = 0.0145394, No Iterations 2
ExecutionTime = 0.036336 s  ClockTime = 0 s

Time = 10s

smoothSolver:  Solving for Ux, Initial residual = 0.0538021, Final residual = 0.00346064, No Iterations 4
smoothSolver:  Solving for Uy, Initial residual = 0.409809, Final residual = 0.021024, No Iterations 3
Pressure gradient source: uncorrected Ubar = 0.888727, pressure gradient = 10.0732
GAMG:  Solving for p, Initial residual = 0.253566, Final residual = 0.021558, No Iterations 9
time step continuity errors : sum local = 0.132078, global = -4.23516e-18, cumulative = 1.43057e-16
Pressure gradient source: uncorrected Ubar = 0.982748, pressure gradient = 4.28239
smoothSolver:  Solving for omega, Initial residual = 0.0464928, Final residual = 0.00236931, No Iterations 2
smoothSolver:  Solving for k, Initial residual = 0.143031, Final residual = 0.00670989, No Iterations 3
ExecutionTime = 0.039195 s  ClockTime = 0 s

Time = 11s

smoothSolver:  Solving for Ux, Initial residual = 0.0389042, Final residual = 0.00293454, No Iterations 4
smoothSolver:  Solving for Uy, Initial residual = 0.556469, Final residual = 0.0283334, No Iterations 3
Pressure gradient source: uncorrected Ubar = 0.979929, pressure gradient = 5.67715
GAMG:  Solving for p, Initial residual = 0.311185, Final residual = 0.0271281, No Iterations 10
time step continuity errors : sum local = 0.102466, global = -7.14625e-17, cumulative = 7.15945e-17
Pressure gradient source: uncorrected Ubar = 1.00747, pressure gradient = 3.76341
smoothSolver:  Solving for omega, Initial residual = 0.0491128, Final residual = 0.0033659, No Iterations 2
smoothSolver:  Solving for k, Initial residual = 0.111519, Final residual = 0.00639056, No Iterations 3
ExecutionTime = 0.042001 s  ClockTime = 0 s

Time = 12s

smoothSolver:  Solving for Ux, Initial residual = 0.0285929, Final residual = 0.00230551, No Iterations 4
smoothSolver:  Solving for Uy, Initial residual = 0.631754, Final residual = 0.0338432, No Iterations 3
Pressure gradient source: uncorrected Ubar = 0.937603, pressure gradient = 8.7881
GAMG:  Solving for p, Initial residual = 0.291419, Final residual = 0.0262275, No Iterations 8
time step continuity errors : sum local = 0.0989367, global = -9.86616e-17, cumulative = -2.70671e-17
Pressure gradient source: uncorrected Ubar = 1.00434, pressure gradient = 3.41374
smoothSolver:  Solving for omega, Initial residual = 0.0397708, Final residual = 0.00357066, No Iterations 2
smoothSolver:  Solving for k, Initial residual = 0.0893441, Final residual = 0.00697518, No Iterations 3
ExecutionTime = 0.045363 s  ClockTime = 0 s

Time = 13s

smoothSolver:  Solving for Ux, Initial residual = 0.0230828, Final residual = 0.00187794, No Iterations 4
smoothSolver:  Solving for Uy, Initial residual = 0.463001, Final residual = 0.025222, No Iterations 3
Pressure gradient source: uncorrected Ubar = 0.914046, pressure gradient = 11.1629
GAMG:  Solving for p, Initial residual = 0.21152, Final residual = 0.0191333, No Iterations 4
time step continuity errors : sum local = 0.0918635, global = -5.81132e-17, cumulative = -8.51803e-17
Pressure gradient source: uncorrected Ubar = 0.991188, pressure gradient = 4.20817
smoothSolver:  Solving for omega, Initial residual = 0.0387593, Final residual = 0.00336316, No Iterations 2
smoothSolver:  Solving for k, Initial residual = 0.0712569, Final residual = 0.00684807, No Iterations 3
ExecutionTime = 0.048187 s  ClockTime = 0 s

Time = 14s

smoothSolver:  Solving for Ux, Initial residual = 0.0206695, Final residual = 0.0016639, No Iterations 4
smoothSolver:  Solving for Uy, Initial residual = 0.440638, Final residual = 0.0250319, No Iterations 3
Pressure gradient source: uncorrected Ubar = 0.966371, pressure gradient = 7.73724
GAMG:  Solving for p, Initial residual = 0.219865, Final residual = 0.0163272, No Iterations 8
time step continuity errors : sum local = 0.106976, global = 1.30104e-16, cumulative = 4.4924e-17
Pressure gradient source: uncorrected Ubar = 0.994231, pressure gradient = 4.81353
smoothSolver:  Solving for omega, Initial residual = 0.032712, Final residual = 0.00166405, No Iterations 3
smoothSolver:  Solving for k, Initial residual = 0.0659872, Final residual = 0.00382491, No Iterations 4
ExecutionTime = 0.050873 s  ClockTime = 0 s

Time = 15s

smoothSolver:  Solving for Ux, Initial residual = 0.0175327, Final residual = 0.00154088, No Iterations 4
smoothSolver:  Solving for Uy, Initial residual = 0.281815, Final residual = 0.0182722, No Iterations 3
Pressure gradient source: uncorrected Ubar = 0.988931, pressure gradient = 6.0973
GAMG:  Solving for p, Initial residual = 0.362616, Final residual = 0.0304482, No Iterations 8
time step continuity errors : sum local = 0.107456, global = -4.80302e-17, cumulative = -3.10621e-18
Pressure gradient source: uncorrected Ubar = 0.994067, pressure gradient = 5.50162
smoothSolver:  Solving for omega, Initial residual = 0.0289929, Final residual = 0.0016452, No Iterations 3
smoothSolver:  Solving for k, Initial residual = 0.0603096, Final residual = 0.00435712, No Iterations 4
ExecutionTime = 0.053532 s  ClockTime = 0 s

Time = 16s

smoothSolver:  Solving for Ux, Initial residual = 0.0159645, Final residual = 0.0014845, No Iterations 4
smoothSolver:  Solving for Uy, Initial residual = 0.337459, Final residual = 0.0184425, No Iterations 3
Pressure gradient source: uncorrected Ubar = 1.01807, pressure gradient = 3.12827
GAMG:  Solving for p, Initial residual = 0.184759, Final residual = 0.0165556, No Iterations 11
time step continuity errors : sum local = 0.0871269, global = -1.46367e-17, cumulative = -1.77429e-17
Pressure gradient source: uncorrected Ubar = 1.00235, pressure gradient = 5.19339
smoothSolver:  Solving for omega, Initial residual = 0.0267319, Final residual = 0.00168644, No Iterations 3
smoothSolver:  Solving for k, Initial residual = 0.0586966, Final residual = 0.00506605, No Iterations 4
ExecutionTime = 0.056333 s  ClockTime = 0 s

Time = 17s

smoothSolver:  Solving for Ux, Initial residual = 0.0138553, Final residual = 0.000899005, No Iterations 5
smoothSolver:  Solving for Uy, Initial residual = 0.28396, Final residual = 0.0222946, No Iterations 3
Pressure gradient source: uncorrected Ubar = 0.986839, pressure gradient = 7.12348
GAMG:  Solving for p, Initial residual = 0.0960415, Final residual = 0.00891516, No Iterations 7
time step continuity errors : sum local = 0.0990309, global = -1.01481e-16, cumulative = -1.19224e-16
Pressure gradient source: uncorrected Ubar = 0.997379, pressure gradient = 5.57779
smoothSolver:  Solving for omega, Initial residual = 0.0224624, Final residual = 0.00187914, No Iterations 3
smoothSolver:  Solving for k, Initial residual = 0.0538006, Final residual = 0.00513993, No Iterations 4
ExecutionTime = 0.058943 s  ClockTime = 0 s

Time = 18s

smoothSolver:  Solving for Ux, Initial residual = 0.0126667, Final residual = 0.000892737, No Iterations 5
smoothSolver:  Solving for Uy, Initial residual = 0.28429, Final residual = 0.0207456, No Iterations 3
Pressure gradient source: uncorrected Ubar = 0.999631, pressure gradient = 5.6356
GAMG:  Solving for p, Initial residual = 0.0776154, Final residual = 0.00668748, No Iterations 9
time step continuity errors : sum local = 0.092215, global = 6.91958e-17, cumulative = -5.00284e-17
Pressure gradient source: uncorrected Ubar = 1.00142, pressure gradient = 5.35463
smoothSolver:  Solving for omega, Initial residual = 0.0188026, Final residual = 0.00115886, No Iterations 4
smoothSolver:  Solving for k, Initial residual = 0.0500232, Final residual = 0.00321764, No Iterations 5
ExecutionTime = 0.061669 s  ClockTime = 0 s

Time = 19s

smoothSolver:  Solving for Ux, Initial residual = 0.0116984, Final residual = 0.000867569, No Iterations 5
smoothSolver:  Solving for Uy, Initial residual = 0.23998, Final residual = 0.0190938, No Iterations 3
Pressure gradient source: uncorrected Ubar = 0.992505, pressure gradient = 6.63282
GAMG:  Solving for p, Initial residual = 0.0593392, Final residual = 0.00508786, No Iterations 8
time step continuity errors : sum local = 0.0820491, global = 6.28837e-18, cumulative = -4.37401e-17
Pressure gradient source: uncorrected Ubar = 1.0006, pressure gradient = 5.25206
smoothSolver:  Solving for omega, Initial residual = 0.0164845, Final residual = 0.00124662, No Iterations 4
smoothSolver:  Solving for k, Initial residual = 0.0470253, Final residual = 0.0033427, No Iterations 5
ExecutionTime = 0.064333 s  ClockTime = 0 s

Time = 20s

smoothSolver:  Solving for Ux, Initial residual = 0.0109325, Final residual = 0.000851976, No Iterations 5
smoothSolver:  Solving for Uy, Initial residual = 0.184495, Final residual = 0.0178724, No Iterations 3
Pressure gradient source: uncorrected Ubar = 0.990171, pressure gradient = 7.08349
GAMG:  Solving for p, Initial residual = 0.0498105, Final residual = 0.00441037, No Iterations 8
time step continuity errors : sum local = 0.069371, global = -1.75641e-17, cumulative = -6.13041e-17
Pressure gradient source: uncorrected Ubar = 0.998983, pressure gradient = 5.44155
smoothSolver:  Solving for omega, Initial residual = 0.0164418, Final residual = 0.00129999, No Iterations 4
smoothSolver:  Solving for k, Initial residual = 0.0435504, Final residual = 0.00339761, No Iterations 5
ExecutionTime = 0.067032 s  ClockTime = 0 s

Time = 21s

smoothSolver:  Solving for Ux, Initial residual = 0.0105294, Final residual = 0.000843143, No Iterations 5
smoothSolver:  Solving for Uy, Initial residual = 0.194302, Final residual = 0.0180909, No Iterations 3
Pressure gradient source: uncorrected Ubar = 1.00511, pressure gradient = 4.4208
GAMG:  Solving for p, Initial residual = 0.0392808, Final residual = 0.00334238, No Iterations 9
time step continuity errors : sum local = 0.0471521, global = -2.56922e-17, cumulative = -8.69963e-17
Pressure gradient source: uncorrected Ubar = 1.00146, pressure gradient = 5.15087
smoothSolver:  Solving for omega, Initial residual = 0.0159544, Final residual = 0.00135347, No Iterations 4
smoothSolver:  Solving for k, Initial residual = 0.0403148, Final residual = 0.00336776, No Iterations 5
ExecutionTime = 0.069751 s  ClockTime = 0 s

Time = 22s

smoothSolver:  Solving for Ux, Initial residual = 0.0101592, Final residual = 0.000822996, No Iterations 5
smoothSolver:  Solving for Uy, Initial residual = 0.204845, Final residual = 0.0195022, No Iterations 3
Pressure gradient source: uncorrected Ubar = 1.00578, pressure gradient = 3.9234
GAMG:  Solving for p, Initial residual = 0.0328866, Final residual = 0.00288915, No Iterations 10
time step continuity errors : sum local = 0.0333151, global = 1.16525e-16, cumulative = 2.95283e-17
Pressure gradient source: uncorrected Ubar = 1.00085, pressure gradient = 4.96985
smoothSolver:  Solving for omega, Initial residual = 0.0156246, Final residual = 0.00141011, No Iterations 4
smoothSolver:  Solving for k, Initial residual = 0.0370464, Final residual = 0.00331483, No Iterations 5
ExecutionTime = 0.072504 s  ClockTime = 0 s

Time = 23s

smoothSolver:  Solving for Ux, Initial residual = 0.00982689, Final residual = 0.000805501, No Iterations 5
smoothSolver:  Solving for Uy, Initial residual = 0.19444, Final residual = 0.0109659, No Iterations 4
Pressure gradient source: uncorrected Ubar = 1.01049, pressure gradient = 2.62263
GAMG:  Solving for p, Initial residual = 0.0342633, Final residual = 0.00324088, No Iterations 9
time step continuity errors : sum local = 0.0289484, global = -1.06855e-16, cumulative = -7.73266e-17
Pressure gradient source: uncorrected Ubar = 1.00161, pressure gradient = 4.60985
smoothSolver:  Solving for omega, Initial residual = 0.0149057, Final residual = 0.0014604, No Iterations 4
smoothSolver:  Solving for k, Initial residual = 0.0343777, Final residual = 0.00326819, No Iterations 5
ExecutionTime = 0.075234 s  ClockTime = 0 s

Time = 24s

smoothSolver:  Solving for Ux, Initial residual = 0.00948296, Final residual = 0.000781638, No Iterations 5
smoothSolver:  Solving for Uy, Initial residual = 0.186536, Final residual = 0.0109835, No Iterations 4
Pressure gradient source: uncorrected Ubar = 1.00625, pressure gradient = 3.13123
GAMG:  Solving for p, Initial residual = 0.0426252, Final residual = 0.00401597, No Iterations 9
time step continuity errors : sum local = 0.0266579, global = 2.56956e-17, cumulative = -5.1631e-17
Pressure gradient source: uncorrected Ubar = 1.00081, pressure gradient = 4.41925
smoothSolver:  Solving for omega, Initial residual = 0.0144221, Final residual = 0.000906567, No Iterations 5
smoothSolver:  Solving for k, Initial residual = 0.0316628, Final residual = 0.00311234, No Iterations 5
ExecutionTime = 0.077992 s  ClockTime = 0 s

Time = 25s

smoothSolver:  Solving for Ux, Initial residual = 0.00919021, Final residual = 0.000762225, No Iterations 5
smoothSolver:  Solving for Uy, Initial residual = 0.182367, Final residual = 0.0106671, No Iterations 4
Pressure gradient source: uncorrected Ubar = 1.00686, pressure gradient = 2.70507
GAMG:  Solving for p, Initial residual = 0.0737664, Final residual = 0.00568645, No Iterations 10
time step continuity errors : sum local = 0.0203943, global = 4.70552e-17, cumulative = -4.57581e-18
Pressure gradient source: uncorrected Ubar = 1.00088, pressure gradient = 4.19974
smoothSolver:  Solving for omega, Initial residual = 0.0137478, Final residual = 0.000892129, No Iterations 5
smoothSolver:  Solving for k, Initial residual = 0.0294926, Final residual = 0.00192183, No Iterations 6
ExecutionTime = 0.080805 s  ClockTime = 0 s

Time = 26s

smoothSolver:  Solving for Ux, Initial residual = 0.00889528, Final residual = 0.000741245, No Iterations 5
smoothSolver:  Solving for Uy, Initial residual = 0.159724, Final residual = 0.0104513, No Iterations 4
Pressure gradient source: uncorrected Ubar = 1.00495, pressure gradient = 2.87992
GAMG:  Solving for p, Initial residual = 0.0710506, Final residual = 0.00710145, No Iterations 7
time step continuity errors : sum local = 0.0240545, global = -7.04731e-18, cumulative = -1.16231e-17
Pressure gradient source: uncorrected Ubar = 1.00062, pressure gradient = 4.03401
smoothSolver:  Solving for omega, Initial residual = 0.012639, Final residual = 0.000899542, No Iterations 5
smoothSolver:  Solving for k, Initial residual = 0.0276544, Final residual = 0.00186819, No Iterations 6
ExecutionTime = 0.083459 s  ClockTime = 0 s

Time = 27s

smoothSolver:  Solving for Ux, Initial residual = 0.00862523, Final residual = 0.000722173, No Iterations 5
smoothSolver:  Solving for Uy, Initial residual = 0.123666, Final residual = 0.00926807, No Iterations 4
Pressure gradient source: uncorrected Ubar = 1.00294, pressure gradient = 3.20148
GAMG:  Solving for p, Initial residual = 0.0389428, Final residual = 0.00380535, No Iterations 7
time step continuity errors : sum local = 0.0204457, global = 8.96093e-17, cumulative = 7.79862e-17
Pressure gradient source: uncorrected Ubar = 1.00033, pressure gradient = 3.94133
smoothSolver:  Solving for omega, Initial residual = 0.011514, Final residual = 0.000817952, No Iterations 5
smoothSolver:  Solving for k, Initial residual = 0.0255412, Final residual = 0.00176413, No Iterations 6
ExecutionTime = 0.086146 s  ClockTime = 0 s

Time = 28s

smoothSolver:  Solving for Ux, Initial residual = 0.00836816, Final residual = 0.000703209, No Iterations 5
smoothSolver:  Solving for Uy, Initial residual = 0.0962893, Final residual = 0.00836767, No Iterations 4
Pressure gradient source: uncorrected Ubar = 1.00256, pressure gradient = 3.16994
GAMG:  Solving for p, Initial residual = 0.0219507, Final residual = 0.00179364, No Iterations 9
time step continuity errors : sum local = 0.0135315, global = 5.07407e-17, cumulative = 1.28727e-16
Pressure gradient source: uncorrected Ubar = 1.00024, pressure gradient = 3.86918
smoothSolver:  Solving for omega, Initial residual = 0.0103637, Final residual = 0.000828237, No Iterations 5
smoothSolver:  Solving for k, Initial residual = 0.0237532, Final residual = 0.00166954, No Iterations 6
ExecutionTime = 0.088891 s  ClockTime = 0 s

Time = 29s

smoothSolver:  Solving for Ux, Initial residual = 0.00812878, Final residual = 0.00068555, No Iterations 5
smoothSolver:  Solving for Uy, Initial residual = 0.0907743, Final residual = 0.00759597, No Iterations 4
Pressure gradient source: uncorrected Ubar = 1.00158, pressure gradient = 3.36666
GAMG:  Solving for p, Initial residual = 0.0123778, Final residual = 0.00103672, No Iterations 13
time step continuity errors : sum local = 0.0100907, global = -2.85145e-17, cumulative = 1.00212e-16
Pressure gradient source: uncorrected Ubar = 1.0001, pressure gradient = 3.8372
smoothSolver:  Solving for omega, Initial residual = 0.00935827, Final residual = 0.000750667, No Iterations 5
smoothSolver:  Solving for k, Initial residual = 0.0220739, Final residual = 0.00157792, No Iterations 6
ExecutionTime = 0.091826 s  ClockTime = 0 s

Time = 30s

smoothSolver:  Solving for Ux, Initial residual = 0.00790995, Final residual = 0.000669624, No Iterations 5
smoothSolver:  Solving for Uy, Initial residual = 0.0781423, Final residual = 0.00683114, No Iterations 4
Pressure gradient source: uncorrected Ubar = 1.00166, pressure gradient = 3.2799
GAMG:  Solving for p, Initial residual = 0.00770661, Final residual = 0.000705348, No Iterations 13
time step continuity errors : sum local = 0.0078767, global = -9.1073e-17, cumulative = 9.13935e-18
Pressure gradient source: uncorrected Ubar = 1.0001, pressure gradient = 3.8037
smoothSolver:  Solving for omega, Initial residual = 0.00854885, Final residual = 0.000758399, No Iterations 5
smoothSolver:  Solving for k, Initial residual = 0.0206373, Final residual = 0.00150756, No Iterations 6
ExecutionTime = 0.094747 s  ClockTime = 0 s

Time = 31s

smoothSolver:  Solving for Ux, Initial residual = 0.00770692, Final residual = 0.000652195, No Iterations 5
smoothSolver:  Solving for Uy, Initial residual = 0.062329, Final residual = 0.00598818, No Iterations 4
Pressure gradient source: uncorrected Ubar = 1.00158, pressure gradient = 3.24246
GAMG:  Solving for p, Initial residual = 0.00575725, Final residual = 0.000466672, No Iterations 13
time step continuity errors : sum local = 0.00562175, global = 2.8135e-17, cumulative = 3.72744e-17
Pressure gradient source: uncorrected Ubar = 1.00008, pressure gradient = 3.77417
smoothSolver:  Solving for omega, Initial residual = 0.00783638, Final residual = 0.000701084, No Iterations 5
smoothSolver:  Solving for k, Initial residual = 0.0189946, Final residual = 0.0013816, No Iterations 6
ExecutionTime = 0.097694 s  ClockTime = 0 s

Time = 32s

smoothSolver:  Solving for Ux, Initial residual = 0.00746939, Final residual = 0.000627104, No Iterations 5
smoothSolver:  Solving for Uy, Initial residual = 0.052019, Final residual = 0.00337081, No Iterations 5
Pressure gradient source: uncorrected Ubar = 1.00103, pressure gradient = 3.39174
GAMG:  Solving for p, Initial residual = 0.00450702, Final residual = 0.00037053, No Iterations 11
time step continuity errors : sum local = 0.00453366, global = 1.95698e-17, cumulative = 5.68442e-17
Pressure gradient source: uncorrected Ubar = 1.00001, pressure gradient = 3.77146
smoothSolver:  Solving for omega, Initial residual = 0.00725099, Final residual = 0.000677551, No Iterations 5
smoothSolver:  Solving for k, Initial residual = 0.0172975, Final residual = 0.0012737, No Iterations 6
ExecutionTime = 0.100534 s  ClockTime = 0 s

Time = 33s

smoothSolver:  Solving for Ux, Initial residual = 0.00717538, Final residual = 0.000601021, No Iterations 5
smoothSolver:  Solving for Uy, Initial residual = 0.0443629, Final residual = 0.00317964, No Iterations 5
Pressure gradient source: uncorrected Ubar = 1.00103, pressure gradient = 3.3685
GAMG:  Solving for p, Initial residual = 0.00354249, Final residual = 0.00028784, No Iterations 9
time step continuity errors : sum local = 0.00342008, global = -3.84886e-18, cumulative = 5.29954e-17
Pressure gradient source: uncorrected Ubar = 1.00001, pressure gradient = 3.76703
smoothSolver:  Solving for omega, Initial residual = 0.00686251, Final residual = 0.000652609, No Iterations 5
smoothSolver:  Solving for k, Initial residual = 0.0156395, Final residual = 0.00115408, No Iterations 6
ExecutionTime = 0.103294 s  ClockTime = 0 s

Time = 34s

smoothSolver:  Solving for Ux, Initial residual = 0.00690403, Final residual = 0.000577342, No Iterations 5
smoothSolver:  Solving for Uy, Initial residual = 0.039734, Final residual = 0.00295182, No Iterations 5
Pressure gradient source: uncorrected Ubar = 1.00044, pressure gradient = 3.58516
GAMG:  Solving for p, Initial residual = 0.00279782, Final residual = 0.0002393, No Iterations 6
time step continuity errors : sum local = 0.00285457, global = 3.40439e-17, cumulative = 8.70393e-17
Pressure gradient source: uncorrected Ubar = 0.999935, pressure gradient = 3.79374
smoothSolver:  Solving for omega, Initial residual = 0.00638694, Final residual = 0.000637295, No Iterations 5
smoothSolver:  Solving for k, Initial residual = 0.0141565, Final residual = 0.00105789, No Iterations 6
ExecutionTime = 0.105944 s  ClockTime = 0 s

Time = 35s

smoothSolver:  Solving for Ux, Initial residual = 0.00666231, Final residual = 0.000556068, No Iterations 5
smoothSolver:  Solving for Uy, Initial residual = 0.0347927, Final residual = 0.00271264, No Iterations 5
Pressure gradient source: uncorrected Ubar = 1.00052, pressure gradient = 3.5707
GAMG:  Solving for p, Initial residual = 0.00232464, Final residual = 0.000228109, No Iterations 4
time step continuity errors : sum local = 0.00236937, global = 2.56414e-17, cumulative = 1.12681e-16
Pressure gradient source: uncorrected Ubar = 0.999944, pressure gradient = 3.81784
smoothSolver:  Solving for omega, Initial residual = 0.00597269, Final residual = 0.000589655, No Iterations 5
smoothSolver:  Solving for k, Initial residual = 0.0128237, Final residual = 0.000965106, No Iterations 6
ExecutionTime = 0.108475 s  ClockTime = 0 s

Time = 36s

smoothSolver:  Solving for Ux, Initial residual = 0.00643837, Final residual = 0.000536508, No Iterations 5
smoothSolver:  Solving for Uy, Initial residual = 0.0307696, Final residual = 0.00256987, No Iterations 5
Pressure gradient source: uncorrected Ubar = 1.00018, pressure gradient = 3.73402
GAMG:  Solving for p, Initial residual = 0.00194562, Final residual = 0.000174787, No Iterations 4
time step continuity errors : sum local = 0.00160629, global = 1.89193e-17, cumulative = 1.316e-16
Pressure gradient source: uncorrected Ubar = 0.999909, pressure gradient = 3.85943
smoothSolver:  Solving for omega, Initial residual = 0.00569686, Final residual = 0.000386026, No Iterations 6
smoothSolver:  Solving for k, Initial residual = 0.0116754, Final residual = 0.000881548, No Iterations 6
ExecutionTime = 0.111012 s  ClockTime = 0 s

Time = 37s

smoothSolver:  Solving for Ux, Initial residual = 0.00623718, Final residual = 0.000519388, No Iterations 5
smoothSolver:  Solving for Uy, Initial residual = 0.0279627, Final residual = 0.00249139, No Iterations 5
Pressure gradient source: uncorrected Ubar = 1.00013, pressure gradient = 3.79816
GAMG:  Solving for p, Initial residual = 0.00164608, Final residual = 0.000159457, No Iterations 3
time step continuity errors : sum local = 0.00120429, global = 2.29309e-17, cumulative = 1.54531e-16
Pressure gradient source: uncorrected Ubar = 0.999904, pressure gradient = 3.90465
smoothSolver:  Solving for omega, Initial residual = 0.00524195, Final residual = 0.000357303, No Iterations 6
smoothSolver:  Solving for k, Initial residual = 0.0107527, Final residual = 0.000826148, No Iterations 6
ExecutionTime = 0.113534 s  ClockTime = 0 s

Time = 38s

smoothSolver:  Solving for Ux, Initial residual = 0.00604884, Final residual = 0.000503333, No Iterations 5
smoothSolver:  Solving for Uy, Initial residual = 0.0262252, Final residual = 0.00246315, No Iterations 5
Pressure gradient source: uncorrected Ubar = 1.00001, pressure gradient = 3.89756
GAMG:  Solving for p, Initial residual = 0.00150548, Final residual = 0.000128075, No Iterations 5
time step continuity errors : sum local = 0.000855366, global = 2.63461e-17, cumulative = 1.80877e-16
Pressure gradient source: uncorrected Ubar = 0.99989, pressure gradient = 3.95932
smoothSolver:  Solving for omega, Initial residual = 0.00492289, Final residual = 0.000338345, No Iterations 6
smoothSolver:  Solving for k, Initial residual = 0.00986778, Final residual = 0.000756572, No Iterations 6
ExecutionTime = 0.116136 s  ClockTime = 0 s

Time = 39s

smoothSolver:  Solving for Ux, Initial residual = 0.00587949, Final residual = 0.000489123, No Iterations 5
smoothSolver:  Solving for Uy, Initial residual = 0.0252287, Final residual = 0.00245524, No Iterations 5
Pressure gradient source: uncorrected Ubar = 1.0001, pressure gradient = 3.90816
GAMG:  Solving for p, Initial residual = 0.00129945, Final residual = 0.00012231, No Iterations 5
time step continuity errors : sum local = 0.000688635, global = 5.74085e-17, cumulative = 2.38286e-16
Pressure gradient source: uncorrected Ubar = 0.999905, pressure gradient = 4.00874
smoothSolver:  Solving for omega, Initial residual = 0.00467176, Final residual = 0.000321509, No Iterations 6
smoothSolver:  Solving for k, Initial residual = 0.00913132, Final residual = 0.000708727, No Iterations 6
ExecutionTime = 0.118728 s  ClockTime = 0 s

Time = 40s

smoothSolver:  Solving for Ux, Initial residual = 0.00572129, Final residual = 0.000476374, No Iterations 5
smoothSolver:  Solving for Uy, Initial residual = 0.0246356, Final residual = 0.00161165, No Iterations 6
Pressure gradient source: uncorrected Ubar = 1.00004, pressure gradient = 3.98583
GAMG:  Solving for p, Initial residual = 0.00110362, Final residual = 8.18907e-05, No Iterations 6
time step continuity errors : sum local = 0.000421362, global = -1.99222e-17, cumulative = 2.18363e-16
Pressure gradient source: uncorrected Ubar = 0.999899, pressure gradient = 4.06424
smoothSolver:  Solving for omega, Initial residual = 0.00447441, Final residual = 0.000317884, No Iterations 6
smoothSolver:  Solving for k, Initial residual = 0.00843535, Final residual = 0.000646669, No Iterations 6
ExecutionTime = 0.121379 s  ClockTime = 0 s

Time = 41s

smoothSolver:  Solving for Ux, Initial residual = 0.00557929, Final residual = 0.000465716, No Iterations 5
smoothSolver:  Solving for Uy, Initial residual = 0.0244157, Final residual = 0.00162939, No Iterations 6
Pressure gradient source: uncorrected Ubar = 1.00021, pressure gradient = 3.94482
GAMG:  Solving for p, Initial residual = 0.00101064, Final residual = 7.92247e-05, No Iterations 6
time step continuity errors : sum local = 0.000364466, global = -4.82186e-17, cumulative = 1.70145e-16
Pressure gradient source: uncorrected Ubar = 0.999926, pressure gradient = 4.10651
smoothSolver:  Solving for omega, Initial residual = 0.0042059, Final residual = 0.000296629, No Iterations 6
smoothSolver:  Solving for k, Initial residual = 0.00795621, Final residual = 0.000612648, No Iterations 6
ExecutionTime = 0.124017 s  ClockTime = 0 s

Time = 42s

smoothSolver:  Solving for Ux, Initial residual = 0.00544762, Final residual = 0.000455866, No Iterations 5
smoothSolver:  Solving for Uy, Initial residual = 0.0246937, Final residual = 0.00167234, No Iterations 6
Pressure gradient source: uncorrected Ubar = 1.00016, pressure gradient = 4.01286
GAMG:  Solving for p, Initial residual = 0.0009131, Final residual = 7.91378e-05, No Iterations 6
time step continuity errors : sum local = 0.000362413, global = -3.91261e-17, cumulative = 1.31019e-16
Pressure gradient source: uncorrected Ubar = 0.999919, pressure gradient = 4.15495
smoothSolver:  Solving for omega, Initial residual = 0.00401268, Final residual = 0.000287122, No Iterations 6
smoothSolver:  Solving for k, Initial residual = 0.0075292, Final residual = 0.000568776, No Iterations 6
ExecutionTime = 0.126682 s  ClockTime = 0 s

Time = 43s

smoothSolver:  Solving for Ux, Initial residual = 0.00532564, Final residual = 0.000446837, No Iterations 5
smoothSolver:  Solving for Uy, Initial residual = 0.0252705, Final residual = 0.00173411, No Iterations 6
Pressure gradient source: uncorrected Ubar = 1.00019, pressure gradient = 4.0325
GAMG:  Solving for p, Initial residual = 0.000866344, Final residual = 7.96532e-05, No Iterations 6
time step continuity errors : sum local = 0.000390417, global = 1.19533e-17, cumulative = 1.42972e-16
Pressure gradient source: uncorrected Ubar = 0.999927, pressure gradient = 4.20076
smoothSolver:  Solving for omega, Initial residual = 0.00381771, Final residual = 0.000270278, No Iterations 6
smoothSolver:  Solving for k, Initial residual = 0.00725428, Final residual = 0.000541331, No Iterations 6
ExecutionTime = 0.129331 s  ClockTime = 0 s

Time = 44s

smoothSolver:  Solving for Ux, Initial residual = 0.00521226, Final residual = 0.000438568, No Iterations 5
smoothSolver:  Solving for Uy, Initial residual = 0.0258817, Final residual = 0.0018024, No Iterations 6
Pressure gradient source: uncorrected Ubar = 1.00021, pressure gradient = 4.06159
GAMG:  Solving for p, Initial residual = 0.000768889, Final residual = 6.42358e-05, No Iterations 8
time step continuity errors : sum local = 0.000361327, global = -2.64817e-17, cumulative = 1.1649e-16
Pressure gradient source: uncorrected Ubar = 0.999931, pressure gradient = 4.24599
smoothSolver:  Solving for omega, Initial residual = 0.00365895, Final residual = 0.00026301, No Iterations 6
smoothSolver:  Solving for k, Initial residual = 0.00696746, Final residual = 0.000511966, No Iterations 6
ExecutionTime = 0.132048 s  ClockTime = 0 s

Time = 45s

smoothSolver:  Solving for Ux, Initial residual = 0.00510693, Final residual = 0.0004314, No Iterations 5
smoothSolver:  Solving for Uy, Initial residual = 0.0266201, Final residual = 0.00187777, No Iterations 6
Pressure gradient source: uncorrected Ubar = 1.00026, pressure gradient = 4.07061
GAMG:  Solving for p, Initial residual = 0.000720794, Final residual = 6.31062e-05, No Iterations 10
time step continuity errors : sum local = 0.00037081, global = 5.46438e-17, cumulative = 1.71134e-16
Pressure gradient source: uncorrected Ubar = 0.99994, pressure gradient = 4.28733
smoothSolver:  Solving for omega, Initial residual = 0.00350464, Final residual = 0.000253879, No Iterations 6
smoothSolver:  Solving for k, Initial residual = 0.00678771, Final residual = 0.000505309, No Iterations 6
ExecutionTime = 0.134894 s  ClockTime = 0 s

Time = 46s

smoothSolver:  Solving for Ux, Initial residual = 0.00500843, Final residual = 0.0004247, No Iterations 5
smoothSolver:  Solving for Uy, Initial residual = 0.0274389, Final residual = 0.00195364, No Iterations 6
Pressure gradient source: uncorrected Ubar = 1.00028, pressure gradient = 4.08654
GAMG:  Solving for p, Initial residual = 0.000688078, Final residual = 5.90319e-05, No Iterations 13
time step continuity errors : sum local = 0.000340774, global = -3.3014e-17, cumulative = 1.3812e-16
Pressure gradient source: uncorrected Ubar = 0.999945, pressure gradient = 4.32654
smoothSolver:  Solving for omega, Initial residual = 0.00334283, Final residual = 0.000242902, No Iterations 6
smoothSolver:  Solving for k, Initial residual = 0.00669793, Final residual = 0.000501959, No Iterations 6
ExecutionTime = 0.138123 s  ClockTime = 0 s

Time = 47s

smoothSolver:  Solving for Ux, Initial residual = 0.00491507, Final residual = 0.000418262, No Iterations 5
smoothSolver:  Solving for Uy, Initial residual = 0.02788, Final residual = 0.00199896, No Iterations 6
Pressure gradient source: uncorrected Ubar = 1.00022, pressure gradient = 4.16018
GAMG:  Solving for p, Initial residual = 0.000622791, Final residual = 5.38216e-05, No Iterations 15
time step continuity errors : sum local = 0.000307346, global = -3.81097e-17, cumulative = 1.0001e-16
Pressure gradient source: uncorrected Ubar = 0.999938, pressure gradient = 4.37271
smoothSolver:  Solving for omega, Initial residual = 0.00319268, Final residual = 0.000230049, No Iterations 6
smoothSolver:  Solving for k, Initial residual = 0.00659937, Final residual = 0.000495604, No Iterations 6
ExecutionTime = 0.141392 s  ClockTime = 0 s

Time = 48s

smoothSolver:  Solving for Ux, Initial residual = 0.00482718, Final residual = 0.000412196, No Iterations 5
smoothSolver:  Solving for Uy, Initial residual = 0.0278398, Final residual = 0.00200985, No Iterations 6
Pressure gradient source: uncorrected Ubar = 1.00027, pressure gradient = 4.16247
GAMG:  Solving for p, Initial residual = 0.000586911, Final residual = 5.14768e-05, No Iterations 15
time step continuity errors : sum local = 0.000290481, global = 6.74916e-18, cumulative = 1.06759e-16
Pressure gradient source: uncorrected Ubar = 0.999947, pressure gradient = 4.41365
smoothSolver:  Solving for omega, Initial residual = 0.0030841, Final residual = 0.00022865, No Iterations 6
smoothSolver:  Solving for k, Initial residual = 0.00652634, Final residual = 0.000493263, No Iterations 6
ExecutionTime = 0.144432 s  ClockTime = 0 s

Time = 49s

smoothSolver:  Solving for Ux, Initial residual = 0.00474317, Final residual = 0.000406626, No Iterations 5
smoothSolver:  Solving for Uy, Initial residual = 0.0276133, Final residual = 0.00200564, No Iterations 6
Pressure gradient source: uncorrected Ubar = 1.0003, pressure gradient = 4.17446
GAMG:  Solving for p, Initial residual = 0.000537318, Final residual = 5.23723e-05, No Iterations 14
time step continuity errors : sum local = 0.000296146, global = 1.81604e-18, cumulative = 1.08576e-16
Pressure gradient source: uncorrected Ubar = 0.999953, pressure gradient = 4.45173
smoothSolver:  Solving for omega, Initial residual = 0.00294314, Final residual = 0.000218452, No Iterations 6
smoothSolver:  Solving for k, Initial residual = 0.00646785, Final residual = 0.000492764, No Iterations 6
ExecutionTime = 0.147484 s  ClockTime = 0 s

Time = 50s

smoothSolver:  Solving for Ux, Initial residual = 0.0046641, Final residual = 0.000401441, No Iterations 5
smoothSolver:  Solving for Uy, Initial residual = 0.0271686, Final residual = 0.00198331, No Iterations 6
Pressure gradient source: uncorrected Ubar = 1.00032, pressure gradient = 4.18338
GAMG:  Solving for p, Initial residual = 0.000531026, Final residual = 4.87704e-05, No Iterations 14
time step continuity errors : sum local = 0.00027081, global = 5.55112e-17, cumulative = 1.64087e-16
Pressure gradient source: uncorrected Ubar = 0.999958, pressure gradient = 4.48678
smoothSolver:  Solving for omega, Initial residual = 0.00281702, Final residual = 0.000206416, No Iterations 6
smoothSolver:  Solving for k, Initial residual = 0.00640998, Final residual = 0.000486706, No Iterations 6
ExecutionTime = 0.150523 s  ClockTime = 0 s

Time = 51s

smoothSolver:  Solving for Ux, Initial residual = 0.00459044, Final residual = 0.000396467, No Iterations 5
smoothSolver:  Solving for Uy, Initial residual = 0.0269878, Final residual = 0.00198293, No Iterations 6
Pressure gradient source: uncorrected Ubar = 1.00031, pressure gradient = 4.21946
GAMG:  Solving for p, Initial residual = 0.000501586, Final residual = 4.80632e-05, No Iterations 12
time step continuity errors : sum local = 0.000263577, global = 1.98545e-17, cumulative = 1.83941e-16
Pressure gradient source: uncorrected Ubar = 0.999958, pressure gradient = 4.52347
smoothSolver:  Solving for omega, Initial residual = 0.00271053, Final residual = 0.000200556, No Iterations 6
smoothSolver:  Solving for k, Initial residual = 0.00636967, Final residual = 0.000486677, No Iterations 6
ExecutionTime = 0.153453 s  ClockTime = 0 s

Time = 52s

smoothSolver:  Solving for Ux, Initial residual = 0.00451963, Final residual = 0.000391639, No Iterations 5
smoothSolver:  Solving for Uy, Initial residual = 0.0267601, Final residual = 0.00197339, No Iterations 6
Pressure gradient source: uncorrected Ubar = 1.00033, pressure gradient = 4.23231
GAMG:  Solving for p, Initial residual = 0.000468228, Final residual = 4.27666e-05, No Iterations 12
time step continuity errors : sum local = 0.000229877, global = 3.14012e-17, cumulative = 2.15342e-16
Pressure gradient source: uncorrected Ubar = 0.999961, pressure gradient = 4.55798
smoothSolver:  Solving for omega, Initial residual = 0.00260278, Final residual = 0.000193462, No Iterations 6
smoothSolver:  Solving for k, Initial residual = 0.00634388, Final residual = 0.00048968, No Iterations 6
ExecutionTime = 0.156383 s  ClockTime = 0 s

Time = 53s

smoothSolver:  Solving for Ux, Initial residual = 0.00445055, Final residual = 0.000386925, No Iterations 5
smoothSolver:  Solving for Uy, Initial residual = 0.0262014, Final residual = 0.00194236, No Iterations 6
Pressure gradient source: uncorrected Ubar = 1.00032, pressure gradient = 4.257
GAMG:  Solving for p, Initial residual = 0.000441994, Final residual = 4.27046e-05, No Iterations 10
time step continuity errors : sum local = 0.000222948, global = -3.01815e-17, cumulative = 1.85161e-16
Pressure gradient source: uncorrected Ubar = 0.999963, pressure gradient = 4.59238
smoothSolver:  Solving for omega, Initial residual = 0.00251061, Final residual = 0.00018734, No Iterations 6
smoothSolver:  Solving for k, Initial residual = 0.00629067, Final residual = 0.00048166, No Iterations 6
ExecutionTime = 0.15921 s  ClockTime = 0 s

Time = 54s

smoothSolver:  Solving for Ux, Initial residual = 0.00438562, Final residual = 0.000382804, No Iterations 5
smoothSolver:  Solving for Uy, Initial residual = 0.0260137, Final residual = 0.00193856, No Iterations 6
Pressure gradient source: uncorrected Ubar = 1.00034, pressure gradient = 4.26622
GAMG:  Solving for p, Initial residual = 0.000421065, Final residual = 3.89443e-05, No Iterations 10
time step continuity errors : sum local = 0.000197823, global = 5.84114e-17, cumulative = 2.43572e-16
Pressure gradient source: uncorrected Ubar = 0.999967, pressure gradient = 4.6242
smoothSolver:  Solving for omega, Initial residual = 0.00241758, Final residual = 0.000181528, No Iterations 6
smoothSolver:  Solving for k, Initial residual = 0.00627803, Final residual = 0.000487348, No Iterations 6
ExecutionTime = 0.162034 s  ClockTime = 0 s

Time = 55s

smoothSolver:  Solving for Ux, Initial residual = 0.00432328, Final residual = 0.000378753, No Iterations 5
smoothSolver:  Solving for Uy, Initial residual = 0.0256617, Final residual = 0.00192229, No Iterations 6
Pressure gradient source: uncorrected Ubar = 1.00033, pressure gradient = 4.29331
GAMG:  Solving for p, Initial residual = 0.000397202, Final residual = 3.92827e-05, No Iterations 8
time step continuity errors : sum local = 0.000192165, global = 8.53132e-17, cumulative = 3.28885e-16
Pressure gradient source: uncorrected Ubar = 0.999967, pressure gradient = 4.65666
smoothSolver:  Solving for omega, Initial residual = 0.00232533, Final residual = 0.000174465, No Iterations 6
smoothSolver:  Solving for k, Initial residual = 0.00622929, Final residual = 0.000481298, No Iterations 6
ExecutionTime = 0.164769 s  ClockTime = 0 s

Time = 56s

smoothSolver:  Solving for Ux, Initial residual = 0.00426417, Final residual = 0.000374708, No Iterations 5
smoothSolver:  Solving for Uy, Initial residual = 0.0252676, Final residual = 0.00190171, No Iterations 6
Pressure gradient source: uncorrected Ubar = 1.00035, pressure gradient = 4.30116
GAMG:  Solving for p, Initial residual = 0.000371958, Final residual = 3.71043e-05, No Iterations 8
time step continuity errors : sum local = 0.000173295, global = 6.23687e-17, cumulative = 3.91254e-16
Pressure gradient source: uncorrected Ubar = 0.999971, pressure gradient = 4.68654
smoothSolver:  Solving for omega, Initial residual = 0.00223955, Final residual = 0.000168173, No Iterations 6
smoothSolver:  Solving for k, Initial residual = 0.00620963, Final residual = 0.000487616, No Iterations 6
ExecutionTime = 0.167502 s  ClockTime = 0 s

Time = 57s

smoothSolver:  Solving for Ux, Initial residual = 0.00420584, Final residual = 0.000370616, No Iterations 5
smoothSolver:  Solving for Uy, Initial residual = 0.0244056, Final residual = 0.0018464, No Iterations 6
Pressure gradient source: uncorrected Ubar = 1.00036, pressure gradient = 4.3134
GAMG:  Solving for p, Initial residual = 0.000362711, Final residual = 3.30009e-05, No Iterations 8
time step continuity errors : sum local = 0.000148239, global = -1.05954e-16, cumulative = 2.853e-16
Pressure gradient source: uncorrected Ubar = 0.999973, pressure gradient = 4.71493
smoothSolver:  Solving for omega, Initial residual = 0.0021673, Final residual = 0.000165454, No Iterations 6
smoothSolver:  Solving for k, Initial residual = 0.00615365, Final residual = 0.000479213, No Iterations 6
ExecutionTime = 0.170232 s  ClockTime = 0 s

Time = 58s

smoothSolver:  Solving for Ux, Initial residual = 0.00415066, Final residual = 0.000366964, No Iterations 5
smoothSolver:  Solving for Uy, Initial residual = 0.0237124, Final residual = 0.00179266, No Iterations 6
Pressure gradient source: uncorrected Ubar = 1.00037, pressure gradient = 4.31084
GAMG:  Solving for p, Initial residual = 0.000365765, Final residual = 3.5821e-05, No Iterations 6
time step continuity errors : sum local = 0.000151233, global = -7.26179e-17, cumulative = 2.12683e-16
Pressure gradient source: uncorrected Ubar = 0.999977, pressure gradient = 4.73945
smoothSolver:  Solving for omega, Initial residual = 0.0020903, Final residual = 0.000157936, No Iterations 6
smoothSolver:  Solving for k, Initial residual = 0.0061327, Final residual = 0.00048306, No Iterations 6
ExecutionTime = 0.172904 s  ClockTime = 0 s

Time = 59s

smoothSolver:  Solving for Ux, Initial residual = 0.00409761, Final residual = 0.000363558, No Iterations 5
smoothSolver:  Solving for Uy, Initial residual = 0.0234909, Final residual = 0.00178117, No Iterations 6
Pressure gradient source: uncorrected Ubar = 1.00038, pressure gradient = 4.31688
GAMG:  Solving for p, Initial residual = 0.000347245, Final residual = 3.40759e-05, No Iterations 6
time step continuity errors : sum local = 0.000133506, global = -1.77267e-17, cumulative = 1.94956e-16
Pressure gradient source: uncorrected Ubar = 0.99998, pressure gradient = 4.76224
smoothSolver:  Solving for omega, Initial residual = 0.00201908, Final residual = 0.00015126, No Iterations 6
smoothSolver:  Solving for k, Initial residual = 0.00609836, Final residual = 0.000479377, No Iterations 6
ExecutionTime = 0.17556 s  ClockTime = 0 s

Time = 60s

smoothSolver:  Solving for Ux, Initial residual = 0.00404748, Final residual = 0.000360175, No Iterations 5
smoothSolver:  Solving for Uy, Initial residual = 0.0232934, Final residual = 0.00177018, No Iterations 6
Pressure gradient source: uncorrected Ubar = 1.00039, pressure gradient = 4.31723
GAMG:  Solving for p, Initial residual = 0.000322227, Final residual = 3.13221e-05, No Iterations 6
time step continuity errors : sum local = 0.000113859, global = -3.76692e-17, cumulative = 1.57287e-16
Pressure gradient source: uncorrected Ubar = 0.999982, pressure gradient = 4.78246
smoothSolver:  Solving for omega, Initial residual = 0.00196209, Final residual = 0.0001508, No Iterations 6
smoothSolver:  Solving for k, Initial residual = 0.00606848, Final residual = 0.000480229, No Iterations 6
ExecutionTime = 0.178199 s  ClockTime = 0 s

Time = 61s

smoothSolver:  Solving for Ux, Initial residual = 0.00399908, Final residual = 0.000356864, No Iterations 5
smoothSolver:  Solving for Uy, Initial residual = 0.0226736, Final residual = 0.00173078, No Iterations 6
Pressure gradient source: uncorrected Ubar = 1.00039, pressure gradient = 4.32586
GAMG:  Solving for p, Initial residual = 0.000311044, Final residual = 2.99826e-05, No Iterations 6
time step continuity errors : sum local = 9.96496e-05, global = -4.46285e-17, cumulative = 1.12658e-16
Pressure gradient source: uncorrected Ubar = 0.999984, pressure gradient = 4.80179
smoothSolver:  Solving for omega, Initial residual = 0.00189641, Final residual = 0.000145209, No Iterations 6
smoothSolver:  Solving for k, Initial residual = 0.00602904, Final residual = 0.000475562, No Iterations 6
ExecutionTime = 0.180848 s  ClockTime = 0 s

Time = 62s

smoothSolver:  Solving for Ux, Initial residual = 0.00395179, Final residual = 0.000353623, No Iterations 5
smoothSolver:  Solving for Uy, Initial residual = 0.0219017, Final residual = 0.00167871, No Iterations 6
Pressure gradient source: uncorrected Ubar = 1.0004, pressure gradient = 4.31623
GAMG:  Solving for p, Initial residual = 0.000295102, Final residual = 2.50759e-05, No Iterations 6
time step continuity errors : sum local = 7.58765e-05, global = -1.71033e-17, cumulative = 9.55549e-17
Pressure gradient source: uncorrected Ubar = 0.999987, pressure gradient = 4.81739
smoothSolver:  Solving for omega, Initial residual = 0.00183866, Final residual = 0.000140635, No Iterations 6
smoothSolver:  Solving for k, Initial residual = 0.00601475, Final residual = 0.000480915, No Iterations 6
ExecutionTime = 0.183481 s  ClockTime = 0 s

Time = 63s

smoothSolver:  Solving for Ux, Initial residual = 0.00390499, Final residual = 0.000350591, No Iterations 5
smoothSolver:  Solving for Uy, Initial residual = 0.0211788, Final residual = 0.00162345, No Iterations 6
Pressure gradient source: uncorrected Ubar = 1.00041, pressure gradient = 4.31164
GAMG:  Solving for p, Initial residual = 0.000284189, Final residual = 2.76966e-05, No Iterations 5
time step continuity errors : sum local = 7.14564e-05, global = -5.48183e-17, cumulative = 4.07366e-17
Pressure gradient source: uncorrected Ubar = 0.999989, pressure gradient = 4.83066
smoothSolver:  Solving for omega, Initial residual = 0.00178828, Final residual = 0.000138042, No Iterations 6
smoothSolver:  Solving for k, Initial residual = 0.00597992, Final residual = 0.000478515, No Iterations 6
ExecutionTime = 0.186132 s  ClockTime = 0 s

Time = 64s

smoothSolver:  Solving for Ux, Initial residual = 0.00386047, Final residual = 0.000347693, No Iterations 5
smoothSolver:  Solving for Uy, Initial residual = 0.0201345, Final residual = 0.00154867, No Iterations 6
Pressure gradient source: uncorrected Ubar = 1.00042, pressure gradient = 4.29036
GAMG:  Solving for p, Initial residual = 0.000302432, Final residual = 2.65542e-05, No Iterations 5
time step continuity errors : sum local = 5.89198e-05, global = 5.91026e-17, cumulative = 9.98391e-17
Pressure gradient source: uncorrected Ubar = 0.999993, pressure gradient = 4.83907
smoothSolver:  Solving for omega, Initial residual = 0.00173559, Final residual = 0.000133997, No Iterations 6
smoothSolver:  Solving for k, Initial residual = 0.00593777, Final residual = 0.000475356, No Iterations 6
ExecutionTime = 0.188723 s  ClockTime = 0 s

Time = 65s

smoothSolver:  Solving for Ux, Initial residual = 0.00381945, Final residual = 0.000344908, No Iterations 5
smoothSolver:  Solving for Uy, Initial residual = 0.0195087, Final residual = 0.00149933, No Iterations 6
Pressure gradient source: uncorrected Ubar = 1.00043, pressure gradient = 4.27066
GAMG:  Solving for p, Initial residual = 0.000294005, Final residual = 2.66175e-05, No Iterations 5
time step continuity errors : sum local = 5.87812e-05, global = 1.29486e-17, cumulative = 1.12788e-16
Pressure gradient source: uncorrected Ubar = 0.999997, pressure gradient = 4.84361
smoothSolver:  Solving for omega, Initial residual = 0.00168768, Final residual = 0.000130693, No Iterations 6
smoothSolver:  Solving for k, Initial residual = 0.00591985, Final residual = 0.000476427, No Iterations 6
ExecutionTime = 0.191315 s  ClockTime = 0 s

Time = 66s

smoothSolver:  Solving for Ux, Initial residual = 0.00377954, Final residual = 0.000342175, No Iterations 5
smoothSolver:  Solving for Uy, Initial residual = 0.0189092, Final residual = 0.00145177, No Iterations 6
Pressure gradient source: uncorrected Ubar = 1.00044, pressure gradient = 4.24653
GAMG:  Solving for p, Initial residual = 0.000276941, Final residual = 2.45217e-05, No Iterations 5
time step continuity errors : sum local = 6.00877e-05, global = 3.15102e-18, cumulative = 1.15939e-16
Pressure gradient source: uncorrected Ubar = 1, pressure gradient = 4.84409
smoothSolver:  Solving for omega, Initial residual = 0.00164544, Final residual = 0.000126591, No Iterations 6
smoothSolver:  Solving for k, Initial residual = 0.00588768, Final residual = 0.000474767, No Iterations 6
ExecutionTime = 0.193916 s  ClockTime = 0 s

Time = 67s

smoothSolver:  Solving for Ux, Initial residual = 0.00374078, Final residual = 0.000339569, No Iterations 5
smoothSolver:  Solving for Uy, Initial residual = 0.0185362, Final residual = 0.0014232, No Iterations 6
Pressure gradient source: uncorrected Ubar = 1.00045, pressure gradient = 4.22064
GAMG:  Solving for p, Initial residual = 0.000266791, Final residual = 2.45227e-05, No Iterations 5
time step continuity errors : sum local = 6.25461e-05, global = -3.25258e-18, cumulative = 1.12686e-16
Pressure gradient source: uncorrected Ubar = 1, pressure gradient = 4.84076
smoothSolver:  Solving for omega, Initial residual = 0.00160523, Final residual = 0.000123671, No Iterations 6
smoothSolver:  Solving for k, Initial residual = 0.00585077, Final residual = 0.00047126, No Iterations 6
ExecutionTime = 0.196525 s  ClockTime = 0 s

Time = 68s

smoothSolver:  Solving for Ux, Initial residual = 0.00370268, Final residual = 0.000337195, No Iterations 5
smoothSolver:  Solving for Uy, Initial residual = 0.0182308, Final residual = 0.00139789, No Iterations 6
Pressure gradient source: uncorrected Ubar = 1.00046, pressure gradient = 4.19067
GAMG:  Solving for p, Initial residual = 0.000252467, Final residual = 2.44198e-05, No Iterations 4
time step continuity errors : sum local = 5.87458e-05, global = 6.68411e-17, cumulative = 1.79527e-16
Pressure gradient source: uncorrected Ubar = 1.00001, pressure gradient = 4.83351
smoothSolver:  Solving for omega, Initial residual = 0.00157741, Final residual = 0.000121926, No Iterations 6
smoothSolver:  Solving for k, Initial residual = 0.00579412, Final residual = 0.000465019, No Iterations 6
ExecutionTime = 0.199082 s  ClockTime = 0 s

Time = 69s

smoothSolver:  Solving for Ux, Initial residual = 0.00366569, Final residual = 0.000334894, No Iterations 5
smoothSolver:  Solving for Uy, Initial residual = 0.0179883, Final residual = 0.00137401, No Iterations 6
Pressure gradient source: uncorrected Ubar = 1.00046, pressure gradient = 4.16328
GAMG:  Solving for p, Initial residual = 0.000229475, Final residual = 1.8544e-05, No Iterations 7
time step continuity errors : sum local = 4.83002e-05, global = 1.61207e-17, cumulative = 1.95648e-16
Pressure gradient source: uncorrected Ubar = 1.00001, pressure gradient = 4.8233
smoothSolver:  Solving for omega, Initial residual = 0.00154476, Final residual = 0.000119177, No Iterations 6
smoothSolver:  Solving for k, Initial residual = 0.00576553, Final residual = 0.000461988, No Iterations 6
ExecutionTime = 0.201768 s  ClockTime = 0 s

Time = 70s

smoothSolver:  Solving for Ux, Initial residual = 0.00363086, Final residual = 0.000332626, No Iterations 5
smoothSolver:  Solving for Uy, Initial residual = 0.0174735, Final residual = 0.0013275, No Iterations 6
Pressure gradient source: uncorrected Ubar = 1.00047, pressure gradient = 4.12434
GAMG:  Solving for p, Initial residual = 0.000230551, Final residual = 2.14318e-05, No Iterations 10
time step continuity errors : sum local = 5.34206e-05, global = 9.43256e-18, cumulative = 2.05081e-16
Pressure gradient source: uncorrected Ubar = 1.00001, pressure gradient = 4.80861
smoothSolver:  Solving for omega, Initial residual = 0.00151793, Final residual = 0.00011735, No Iterations 6
smoothSolver:  Solving for k, Initial residual = 0.0057197, Final residual = 0.000459186, No Iterations 6
ExecutionTime = 0.204603 s  ClockTime = 0 s

Time = 71s

smoothSolver:  Solving for Ux, Initial residual = 0.0035981, Final residual = 0.000330446, No Iterations 5
smoothSolver:  Solving for Uy, Initial residual = 0.0172681, Final residual = 0.00129282, No Iterations 6
Pressure gradient source: uncorrected Ubar = 1.00048, pressure gradient = 4.08584
GAMG:  Solving for p, Initial residual = 0.000255829, Final residual = 2.35626e-05, No Iterations 10
time step continuity errors : sum local = 5.76795e-05, global = -2.63021e-17, cumulative = 1.78778e-16
Pressure gradient source: uncorrected Ubar = 1.00001, pressure gradient = 4.79015
smoothSolver:  Solving for omega, Initial residual = 0.00149013, Final residual = 0.000115263, No Iterations 6
smoothSolver:  Solving for k, Initial residual = 0.00570186, Final residual = 0.000457143, No Iterations 6
ExecutionTime = 0.207483 s  ClockTime = 0 s

Time = 72s

smoothSolver:  Solving for Ux, Initial residual = 0.00356617, Final residual = 0.000328349, No Iterations 5
smoothSolver:  Solving for Uy, Initial residual = 0.0172865, Final residual = 0.0012713, No Iterations 6
Pressure gradient source: uncorrected Ubar = 1.00048, pressure gradient = 4.04497
GAMG:  Solving for p, Initial residual = 0.000252631, Final residual = 2.47507e-05, No Iterations 10
time step continuity errors : sum local = 5.88815e-05, global = -6.15962e-18, cumulative = 1.72619e-16
Pressure gradient source: uncorrected Ubar = 1.00001, pressure gradient = 4.76808
smoothSolver:  Solving for omega, Initial residual = 0.00146616, Final residual = 0.000114669, No Iterations 6
smoothSolver:  Solving for k, Initial residual = 0.00566821, Final residual = 0.000456272, No Iterations 6
ExecutionTime = 0.210308 s  ClockTime = 0 s

Time = 73s

smoothSolver:  Solving for Ux, Initial residual = 0.00353508, Final residual = 0.000326384, No Iterations 5
smoothSolver:  Solving for Uy, Initial residual = 0.0172267, Final residual = 0.00125079, No Iterations 6
Pressure gradient source: uncorrected Ubar = 1.00048, pressure gradient = 4.01524
GAMG:  Solving for p, Initial residual = 0.000248255, Final residual = 2.23195e-05, No Iterations 12
time step continuity errors : sum local = 5.25361e-05, global = -1.7808e-17, cumulative = 1.54811e-16
Pressure gradient source: uncorrected Ubar = 1.00001, pressure gradient = 4.74488
smoothSolver:  Solving for omega, Initial residual = 0.00143601, Final residual = 0.000111291, No Iterations 6
smoothSolver:  Solving for k, Initial residual = 0.00565521, Final residual = 0.000456227, No Iterations 6
ExecutionTime = 0.213211 s  ClockTime = 0 s

Time = 74s

smoothSolver:  Solving for Ux, Initial residual = 0.00350474, Final residual = 0.000324601, No Iterations 5
smoothSolver:  Solving for Uy, Initial residual = 0.0170766, Final residual = 0.00123227, No Iterations 6
Pressure gradient source: uncorrected Ubar = 1.00049, pressure gradient = 3.9614
GAMG:  Solving for p, Initial residual = 0.000236955, Final residual = 2.26252e-05, No Iterations 12
time step continuity errors : sum local = 5.14008e-05, global = 1.83637e-17, cumulative = 1.73174e-16
Pressure gradient source: uncorrected Ubar = 1.00002, pressure gradient = 4.71644
smoothSolver:  Solving for omega, Initial residual = 0.00141768, Final residual = 0.000112288, No Iterations 6
smoothSolver:  Solving for k, Initial residual = 0.00561969, Final residual = 0.000455531, No Iterations 6
ExecutionTime = 0.21616 s  ClockTime = 0 s

Time = 75s

smoothSolver:  Solving for Ux, Initial residual = 0.00347517, Final residual = 0.00032282, No Iterations 5
smoothSolver:  Solving for Uy, Initial residual = 0.0169872, Final residual = 0.00122445, No Iterations 6
Pressure gradient source: uncorrected Ubar = 1.00048, pressure gradient = 3.93328
GAMG:  Solving for p, Initial residual = 0.000235658, Final residual = 2.268e-05, No Iterations 12
time step continuity errors : sum local = 4.97107e-05, global = -2.13317e-17, cumulative = 1.51843e-16
Pressure gradient source: uncorrected Ubar = 1.00002, pressure gradient = 4.68815
smoothSolver:  Solving for omega, Initial residual = 0.00138795, Final residual = 0.00010844, No Iterations 6
smoothSolver:  Solving for k, Initial residual = 0.00557528, Final residual = 0.000449731, No Iterations 6
ExecutionTime = 0.219097 s  ClockTime = 0 s

Time = 76s

smoothSolver:  Solving for Ux, Initial residual = 0.00344755, Final residual = 0.000321086, No Iterations 5
smoothSolver:  Solving for Uy, Initial residual = 0.0169789, Final residual = 0.00122321, No Iterations 6
Pressure gradient source: uncorrected Ubar = 1.00048, pressure gradient = 3.88829
GAMG:  Solving for p, Initial residual = 0.000229202, Final residual = 2.27539e-05, No Iterations 12
time step continuity errors : sum local = 4.83757e-05, global = 4.06576e-17, cumulative = 1.925e-16
Pressure gradient source: uncorrected Ubar = 1.00002, pressure gradient = 4.65691
smoothSolver:  Solving for omega, Initial residual = 0.0013639, Final residual = 0.000107338, No Iterations 6
smoothSolver:  Solving for k, Initial residual = 0.00556815, Final residual = 0.000453647, No Iterations 6
ExecutionTime = 0.222005 s  ClockTime = 0 s

Time = 77s

smoothSolver:  Solving for Ux, Initial residual = 0.00342088, Final residual = 0.000319416, No Iterations 5
smoothSolver:  Solving for Uy, Initial residual = 0.0170009, Final residual = 0.00123346, No Iterations 6
Pressure gradient source: uncorrected Ubar = 1.00049, pressure gradient = 3.82855
GAMG:  Solving for p, Initial residual = 0.000249792, Final residual = 2.35147e-05, No Iterations 12
time step continuity errors : sum local = 4.774e-05, global = 3.90448e-17, cumulative = 2.31545e-16
Pressure gradient source: uncorrected Ubar = 1.00002, pressure gradient = 4.62059
smoothSolver:  Solving for omega, Initial residual = 0.00134397, Final residual = 0.00010664, No Iterations 6
smoothSolver:  Solving for k, Initial residual = 0.00554019, Final residual = 0.000450164, No Iterations 6
ExecutionTime = 0.224942 s  ClockTime = 0 s

Time = 78s

smoothSolver:  Solving for Ux, Initial residual = 0.00339527, Final residual = 0.000317784, No Iterations 5
smoothSolver:  Solving for Uy, Initial residual = 0.0168974, Final residual = 0.00122879, No Iterations 6
Pressure gradient source: uncorrected Ubar = 1.00048, pressure gradient = 3.78529
GAMG:  Solving for p, Initial residual = 0.00024378, Final residual = 2.41531e-05, No Iterations 12
time step continuity errors : sum local = 4.69383e-05, global = -3.63885e-17, cumulative = 1.95157e-16
Pressure gradient source: uncorrected Ubar = 1.00002, pressure gradient = 4.58295
smoothSolver:  Solving for omega, Initial residual = 0.0013198, Final residual = 0.000103965, No Iterations 6
smoothSolver:  Solving for k, Initial residual = 0.00550298, Final residual = 0.000448969, No Iterations 6
ExecutionTime = 0.22784 s  ClockTime = 0 s

Time = 79s

smoothSolver:  Solving for Ux, Initial residual = 0.00337036, Final residual = 0.00031637, No Iterations 5
smoothSolver:  Solving for Uy, Initial residual = 0.0168711, Final residual = 0.00124862, No Iterations 6
Pressure gradient source: uncorrected Ubar = 1.00048, pressure gradient = 3.7383
GAMG:  Solving for p, Initial residual = 0.000231344, Final residual = 2.04116e-05, No Iterations 14
time step continuity errors : sum local = 3.88503e-05, global = 2.741e-17, cumulative = 2.22567e-16
Pressure gradient source: uncorrected Ubar = 1.00002, pressure gradient = 4.54346
smoothSolver:  Solving for omega, Initial residual = 0.00129886, Final residual = 0.000103209, No Iterations 6
smoothSolver:  Solving for k, Initial residual = 0.00547766, Final residual = 0.000445596, No Iterations 6
ExecutionTime = 0.230836 s  ClockTime = 0 s

Time = 80s

smoothSolver:  Solving for Ux, Initial residual = 0.00334634, Final residual = 0.000315062, No Iterations 5
smoothSolver:  Solving for Uy, Initial residual = 0.0167552, Final residual = 0.00125664, No Iterations 6
Pressure gradient source: uncorrected Ubar = 1.00048, pressure gradient = 3.69422
GAMG:  Solving for p, Initial residual = 0.000221275, Final residual = 1.88635e-05, No Iterations 14
time step continuity errors : sum local = 3.43771e-05, global = 1.6568e-17, cumulative = 2.39135e-16
Pressure gradient source: uncorrected Ubar = 1.00002, pressure gradient = 4.50298
smoothSolver:  Solving for omega, Initial residual = 0.00127798, Final residual = 0.000100965, No Iterations 6
smoothSolver:  Solving for k, Initial residual = 0.00547255, Final residual = 0.00044991, No Iterations 6
ExecutionTime = 0.233851 s  ClockTime = 0 s

Time = 81s

smoothSolver:  Solving for Ux, Initial residual = 0.00332311, Final residual = 0.000313815, No Iterations 5
smoothSolver:  Solving for Uy, Initial residual = 0.0167591, Final residual = 0.00127901, No Iterations 6
Pressure gradient source: uncorrected Ubar = 1.00049, pressure gradient = 3.62568
GAMG:  Solving for p, Initial residual = 0.000220471, Final residual = 1.90325e-05, No Iterations 14
time step continuity errors : sum local = 3.29083e-05, global = 3.17468e-17, cumulative = 2.70881e-16
Pressure gradient source: uncorrected Ubar = 1.00003, pressure gradient = 4.45714
smoothSolver:  Solving for omega, Initial residual = 0.00126276, Final residual = 0.000100804, No Iterations 6
smoothSolver:  Solving for k, Initial residual = 0.00544141, Final residual = 0.000445251, No Iterations 6
ExecutionTime = 0.236867 s  ClockTime = 0 s

Time = 82s

smoothSolver:  Solving for Ux, Initial residual = 0.00330161, Final residual = 0.000312628, No Iterations 5
smoothSolver:  Solving for Uy, Initial residual = 0.0168726, Final residual = 0.00130304, No Iterations 6
Pressure gradient source: uncorrected Ubar = 1.00048, pressure gradient = 3.57752
GAMG:  Solving for p, Initial residual = 0.00021717, Final residual = 1.94723e-05, No Iterations 14
time step continuity errors : sum local = 3.25207e-05, global = -2.52484e-17, cumulative = 2.45633e-16
Pressure gradient source: uncorrected Ubar = 1.00003, pressure gradient = 4.4106
smoothSolver:  Solving for omega, Initial residual = 0.00124932, Final residual = 0.000100363, No Iterations 6
smoothSolver:  Solving for k, Initial residual = 0.00540864, Final residual = 0.000445709, No Iterations 6
ExecutionTime = 0.239846 s  ClockTime = 0 s

Time = 83s

smoothSolver:  Solving for Ux, Initial residual = 0.00328064, Final residual = 0.000311437, No Iterations 5
smoothSolver:  Solving for Uy, Initial residual = 0.01695, Final residual = 0.00130322, No Iterations 6
Pressure gradient source: uncorrected Ubar = 1.00047, pressure gradient = 3.52783
GAMG:  Solving for p, Initial residual = 0.000248475, Final residual = 2.27051e-05, No Iterations 12
time step continuity errors : sum local = 3.57445e-05, global = 1.13299e-17, cumulative = 2.56963e-16
Pressure gradient source: uncorrected Ubar = 1.00003, pressure gradient = 4.36318
smoothSolver:  Solving for omega, Initial residual = 0.00123279, Final residual = 9.82416e-05, No Iterations 6
smoothSolver:  Solving for k, Initial residual = 0.00538037, Final residual = 0.000441607, No Iterations 6
ExecutionTime = 0.242775 s  ClockTime = 0 s

Time = 84s

smoothSolver:  Solving for Ux, Initial residual = 0.00326091, Final residual = 0.000310333, No Iterations 5
smoothSolver:  Solving for Uy, Initial residual = 0.0168481, Final residual = 0.00131934, No Iterations 6
Pressure gradient source: uncorrected Ubar = 1.00048, pressure gradient = 3.46104
GAMG:  Solving for p, Initial residual = 0.000236596, Final residual = 2.32921e-05, No Iterations 12
time step continuity errors : sum local = 3.48653e-05, global = 1.00814e-17, cumulative = 2.67044e-16
Pressure gradient source: uncorrected Ubar = 1.00003, pressure gradient = 4.31186
smoothSolver:  Solving for omega, Initial residual = 0.00122335, Final residual = 9.87505e-05, No Iterations 6
smoothSolver:  Solving for k, Initial residual = 0.00537877, Final residual = 0.000445587, No Iterations 6
ExecutionTime = 0.245814 s  ClockTime = 0 s

Time = 85s

smoothSolver:  Solving for Ux, Initial residual = 0.00324121, Final residual = 0.000309248, No Iterations 5
smoothSolver:  Solving for Uy, Initial residual = 0.016893, Final residual = 0.00132949, No Iterations 6
Pressure gradient source: uncorrected Ubar = 1.00048, pressure gradient = 3.39753
GAMG:  Solving for p, Initial residual = 0.000230319, Final residual = 1.97541e-05, No Iterations 14
time step continuity errors : sum local = 2.89268e-05, global = -3.98105e-17, cumulative = 2.27234e-16
Pressure gradient source: uncorrected Ubar = 1.00003, pressure gradient = 4.25792
smoothSolver:  Solving for omega, Initial residual = 0.00121112, Final residual = 9.72677e-05, No Iterations 6
smoothSolver:  Solving for k, Initial residual = 0.00534161, Final residual = 0.000439761, No Iterations 6
ExecutionTime = 0.248833 s  ClockTime = 0 s

Time = 86s

smoothSolver:  Solving for Ux, Initial residual = 0.00322241, Final residual = 0.000308365, No Iterations 5
smoothSolver:  Solving for Uy, Initial residual = 0.0168981, Final residual = 0.00133511, No Iterations 6
Pressure gradient source: uncorrected Ubar = 1.00047, pressure gradient = 3.33919
GAMG:  Solving for p, Initial residual = 0.000222276, Final residual = 1.96978e-05, No Iterations 14
time step continuity errors : sum local = 2.80413e-05, global = -5.06034e-17, cumulative = 1.7663e-16
Pressure gradient source: uncorrected Ubar = 1.00003, pressure gradient = 4.20278
smoothSolver:  Solving for omega, Initial residual = 0.00120072, Final residual = 9.61549e-05, No Iterations 6
smoothSolver:  Solving for k, Initial residual = 0.00532632, Final residual = 0.000442479, No Iterations 6
ExecutionTime = 0.251845 s  ClockTime = 0 s

Time = 87s

smoothSolver:  Solving for Ux, Initial residual = 0.00320409, Final residual = 0.000307519, No Iterations 5
smoothSolver:  Solving for Uy, Initial residual = 0.0170072, Final residual = 0.00135089, No Iterations 6
Pressure gradient source: uncorrected Ubar = 1.00047, pressure gradient = 3.27851
GAMG:  Solving for p, Initial residual = 0.000217335, Final residual = 1.89839e-05, No Iterations 14
time step continuity errors : sum local = 2.56588e-05, global = -1.14587e-17, cumulative = 1.65172e-16
Pressure gradient source: uncorrected Ubar = 1.00003, pressure gradient = 4.14621
smoothSolver:  Solving for omega, Initial residual = 0.00119226, Final residual = 9.56616e-05, No Iterations 6
smoothSolver:  Solving for k, Initial residual = 0.00529683, Final residual = 0.000437982, No Iterations 6
ExecutionTime = 0.254837 s  ClockTime = 0 s

Time = 88s

smoothSolver:  Solving for Ux, Initial residual = 0.00318636, Final residual = 0.00030669, No Iterations 5
smoothSolver:  Solving for Uy, Initial residual = 0.0170449, Final residual = 0.00135806, No Iterations 6
Pressure gradient source: uncorrected Ubar = 1.00046, pressure gradient = 3.2212
GAMG:  Solving for p, Initial residual = 0.000208874, Final residual = 1.85491e-05, No Iterations 14
time step continuity errors : sum local = 2.41131e-05, global = 5.12286e-17, cumulative = 2.164e-16
Pressure gradient source: uncorrected Ubar = 1.00003, pressure gradient = 4.0891
smoothSolver:  Solving for omega, Initial residual = 0.00118396, Final residual = 9.53908e-05, No Iterations 6
smoothSolver:  Solving for k, Initial residual = 0.00528161, Final residual = 0.00043945, No Iterations 6
ExecutionTime = 0.257844 s  ClockTime = 0 s

Time = 89s

smoothSolver:  Solving for Ux, Initial residual = 0.00316966, Final residual = 0.00030586, No Iterations 5
smoothSolver:  Solving for Uy, Initial residual = 0.0171286, Final residual = 0.00134922, No Iterations 6
Pressure gradient source: uncorrected Ubar = 1.00046, pressure gradient = 3.15248
GAMG:  Solving for p, Initial residual = 0.000235748, Final residual = 2.22754e-05, No Iterations 12
time step continuity errors : sum local = 2.71765e-05, global = -1.89532e-17, cumulative = 1.97447e-16
Pressure gradient source: uncorrected Ubar = 1.00003, pressure gradient = 4.02935
[...]
smoothSolver:  Solving for omega, Initial residual = 5.94642e-06, Final residual = 5.94642e-06, No Iterations 0
smoothSolver:  Solving for k, Initial residual = 1.58253e-05, Final residual = 9.96767e-06, No Iterations 1
ExecutionTime = 9.71257 s  ClockTime = 10 s

Time = 3757s

smoothSolver:  Solving for Ux, Initial residual = 2.88634e-06, Final residual = 2.88634e-06, No Iterations 0
smoothSolver:  Solving for Uy, Initial residual = 0.000135648, Final residual = 8.28843e-06, No Iterations 4
Pressure gradient source: uncorrected Ubar = 1, pressure gradient = 0.00409643
GAMG:  Solving for p, Initial residual = 0.000133297, Final residual = 8.77944e-06, No Iterations 5
time step continuity errors : sum local = 1.9703e-10, global = 1.0418e-17, cumulative = 1.56293e-17
Pressure gradient source: uncorrected Ubar = 1, pressure gradient = 0.00409647
smoothSolver:  Solving for omega, Initial residual = 5.94643e-06, Final residual = 5.94643e-06, No Iterations 0
smoothSolver:  Solving for k, Initial residual = 1.58173e-05, Final residual = 9.96291e-06, No Iterations 1
ExecutionTime = 9.71499 s  ClockTime = 10 s

Time = 3758s

smoothSolver:  Solving for Ux, Initial residual = 2.87283e-06, Final residual = 2.87283e-06, No Iterations 0
smoothSolver:  Solving for Uy, Initial residual = 0.000125551, Final residual = 1.22796e-05, No Iterations 3
Pressure gradient source: uncorrected Ubar = 1, pressure gradient = 0.00409647
GAMG:  Solving for p, Initial residual = 0.000124031, Final residual = 1.17623e-05, No Iterations 3
time step continuity errors : sum local = 2.4405e-10, global = 4.13671e-18, cumulative = 1.9766e-17
Pressure gradient source: uncorrected Ubar = 1, pressure gradient = 0.0040965
smoothSolver:  Solving for omega, Initial residual = 5.94645e-06, Final residual = 5.94645e-06, No Iterations 0
smoothSolver:  Solving for k, Initial residual = 1.58092e-05, Final residual = 9.95801e-06, No Iterations 1
ExecutionTime = 9.71736 s  ClockTime = 10 s

Time = 3759s

smoothSolver:  Solving for Ux, Initial residual = 2.85925e-06, Final residual = 2.85925e-06, No Iterations 0
smoothSolver:  Solving for Uy, Initial residual = 0.000122378, Final residual = 1.1891e-05, No Iterations 3
Pressure gradient source: uncorrected Ubar = 1, pressure gradient = 0.0040965
GAMG:  Solving for p, Initial residual = 0.000121595, Final residual = 8.78894e-06, No Iterations 5
time step continuity errors : sum local = 1.82233e-10, global = 2.84071e-18, cumulative = 2.26067e-17
Pressure gradient source: uncorrected Ubar = 1, pressure gradient = 0.00409653
smoothSolver:  Solving for omega, Initial residual = 5.94646e-06, Final residual = 5.94646e-06, No Iterations 0
smoothSolver:  Solving for k, Initial residual = 1.5801e-05, Final residual = 9.95297e-06, No Iterations 1
ExecutionTime = 9.71982 s  ClockTime = 10 s

Time = 3760s

smoothSolver:  Solving for Ux, Initial residual = 2.84628e-06, Final residual = 2.84628e-06, No Iterations 0
smoothSolver:  Solving for Uy, Initial residual = 0.000119393, Final residual = 1.14266e-05, No Iterations 3
Pressure gradient source: uncorrected Ubar = 1, pressure gradient = 0.00409653
GAMG:  Solving for p, Initial residual = 0.000115973, Final residual = 1.15296e-05, No Iterations 4
time step continuity errors : sum local = 2.26078e-10, global = -2.06795e-18, cumulative = 2.05388e-17
Pressure gradient source: uncorrected Ubar = 1, pressure gradient = 0.00409656
smoothSolver:  Solving for omega, Initial residual = 5.94648e-06, Final residual = 5.94648e-06, No Iterations 0
smoothSolver:  Solving for k, Initial residual = 1.57927e-05, Final residual = 9.94784e-06, No Iterations 1
ExecutionTime = 9.7222 s  ClockTime = 10 s

Time = 3761s

smoothSolver:  Solving for Ux, Initial residual = 2.83335e-06, Final residual = 2.83335e-06, No Iterations 0
smoothSolver:  Solving for Uy, Initial residual = 0.000116946, Final residual = 1.13987e-05, No Iterations 3
Pressure gradient source: uncorrected Ubar = 1, pressure gradient = 0.00409656
GAMG:  Solving for p, Initial residual = 0.000113805, Final residual = 1.09909e-05, No Iterations 4
time step continuity errors : sum local = 2.12432e-10, global = -9.87859e-19, cumulative = 1.95509e-17
Pressure gradient source: uncorrected Ubar = 1, pressure gradient = 0.00409659
smoothSolver:  Solving for omega, Initial residual = 5.94649e-06, Final residual = 5.94649e-06, No Iterations 0
smoothSolver:  Solving for k, Initial residual = 1.57843e-05, Final residual = 9.9426e-06, No Iterations 1
ExecutionTime = 9.72458 s  ClockTime = 10 s

Time = 3762s

smoothSolver:  Solving for Ux, Initial residual = 2.82036e-06, Final residual = 2.82036e-06, No Iterations 0
smoothSolver:  Solving for Uy, Initial residual = 0.000115482, Final residual = 1.15288e-05, No Iterations 3
Pressure gradient source: uncorrected Ubar = 1, pressure gradient = 0.00409659
GAMG:  Solving for p, Initial residual = 0.000111095, Final residual = 1.03128e-05, No Iterations 4
time step continuity errors : sum local = 1.98065e-10, global = 5.83367e-19, cumulative = 2.01343e-17
Pressure gradient source: uncorrected Ubar = 1, pressure gradient = 0.00409663
smoothSolver:  Solving for omega, Initial residual = 5.9465e-06, Final residual = 5.9465e-06, No Iterations 0
smoothSolver:  Solving for k, Initial residual = 1.57759e-05, Final residual = 9.93728e-06, No Iterations 1
ExecutionTime = 9.72694 s  ClockTime = 10 s

Time = 3763s

smoothSolver:  Solving for Ux, Initial residual = 2.80732e-06, Final residual = 2.80732e-06, No Iterations 0
smoothSolver:  Solving for Uy, Initial residual = 0.000114586, Final residual = 6.77691e-06, No Iterations 4
Pressure gradient source: uncorrected Ubar = 1, pressure gradient = 0.00409663
GAMG:  Solving for p, Initial residual = 0.000109307, Final residual = 1.07183e-05, No Iterations 3
time step continuity errors : sum local = 2.05816e-10, global = -9.70101e-20, cumulative = 2.00373e-17
Pressure gradient source: uncorrected Ubar = 1, pressure gradient = 0.00409666
smoothSolver:  Solving for omega, Initial residual = 5.94652e-06, Final residual = 5.94652e-06, No Iterations 0
smoothSolver:  Solving for k, Initial residual = 1.57674e-05, Final residual = 9.9319e-06, No Iterations 1
ExecutionTime = 9.7293 s  ClockTime = 10 s

Time = 3764s

smoothSolver:  Solving for Ux, Initial residual = 2.79422e-06, Final residual = 2.79422e-06, No Iterations 0
smoothSolver:  Solving for Uy, Initial residual = 0.000110673, Final residual = 6.50748e-06, No Iterations 4
Pressure gradient source: uncorrected Ubar = 1, pressure gradient = 0.00409666
GAMG:  Solving for p, Initial residual = 0.000108171, Final residual = 1.06925e-05, No Iterations 4
time step continuity errors : sum local = 2.07055e-10, global = -4.64704e-18, cumulative = 1.53902e-17
Pressure gradient source: uncorrected Ubar = 1, pressure gradient = 0.00409669
smoothSolver:  Solving for omega, Initial residual = 5.94653e-06, Final residual = 5.94653e-06, No Iterations 0
smoothSolver:  Solving for k, Initial residual = 1.57588e-05, Final residual = 9.92647e-06, No Iterations 1
ExecutionTime = 9.73172 s  ClockTime = 10 s

Time = 3765s

smoothSolver:  Solving for Ux, Initial residual = 2.78107e-06, Final residual = 2.78107e-06, No Iterations 0
smoothSolver:  Solving for Uy, Initial residual = 0.000111328, Final residual = 6.66439e-06, No Iterations 4
Pressure gradient source: uncorrected Ubar = 1, pressure gradient = 0.00409669
GAMG:  Solving for p, Initial residual = 0.000104515, Final residual = 9.77563e-06, No Iterations 3
time step continuity errors : sum local = 1.93015e-10, global = 6.16066e-18, cumulative = 2.15509e-17
Pressure gradient source: uncorrected Ubar = 1, pressure gradient = 0.00409672
smoothSolver:  Solving for omega, Initial residual = 5.94654e-06, Final residual = 5.94654e-06, No Iterations 0
smoothSolver:  Solving for k, Initial residual = 1.57502e-05, Final residual = 9.921e-06, No Iterations 1
ExecutionTime = 9.73405 s  ClockTime = 10 s

Time = 3766s

smoothSolver:  Solving for Ux, Initial residual = 2.76786e-06, Final residual = 2.76786e-06, No Iterations 0
smoothSolver:  Solving for Uy, Initial residual = 0.00010897, Final residual = 6.68422e-06, No Iterations 4
Pressure gradient source: uncorrected Ubar = 1, pressure gradient = 0.00409672
GAMG:  Solving for p, Initial residual = 0.000102639, Final residual = 1.02024e-05, No Iterations 3
time step continuity errors : sum local = 2.03779e-10, global = 1.10081e-20, cumulative = 2.15619e-17
Pressure gradient source: uncorrected Ubar = 1, pressure gradient = 0.00409675
smoothSolver:  Solving for omega, Initial residual = 5.94655e-06, Final residual = 5.94655e-06, No Iterations 0
smoothSolver:  Solving for k, Initial residual = 1.57416e-05, Final residual = 9.91548e-06, No Iterations 1
ExecutionTime = 9.73639 s  ClockTime = 10 s

Time = 3767s

smoothSolver:  Solving for Ux, Initial residual = 2.7548e-06, Final residual = 2.7548e-06, No Iterations 0
smoothSolver:  Solving for Uy, Initial residual = 0.00010889, Final residual = 6.85463e-06, No Iterations 4
Pressure gradient source: uncorrected Ubar = 1, pressure gradient = 0.00409675
GAMG:  Solving for p, Initial residual = 0.000100042, Final residual = 9.97038e-06, No Iterations 4
time step continuity errors : sum local = 2.01328e-10, global = -5.43377e-18, cumulative = 1.61281e-17
Pressure gradient source: uncorrected Ubar = 1, pressure gradient = 0.00409679
smoothSolver:  Solving for omega, Initial residual = 5.94656e-06, Final residual = 5.94656e-06, No Iterations 0
smoothSolver:  Solving for k, Initial residual = 1.57329e-05, Final residual = 9.90994e-06, No Iterations 1
ExecutionTime = 9.73877 s  ClockTime = 10 s

Time = 3768s

smoothSolver:  Solving for Ux, Initial residual = 2.74184e-06, Final residual = 2.74184e-06, No Iterations 0
smoothSolver:  Solving for Uy, Initial residual = 0.000110598, Final residual = 7.21042e-06, No Iterations 4
Pressure gradient source: uncorrected Ubar = 1, pressure gradient = 0.00409679
GAMG:  Solving for p, Initial residual = 9.59656e-05, Final residual = 7.90313e-06, No Iterations 3
time step continuity errors : sum local = 1.66373e-10, global = -1.71203e-18, cumulative = 1.44161e-17
Pressure gradient source: uncorrected Ubar = 1, pressure gradient = 0.00409682
smoothSolver:  Solving for omega, Initial residual = 5.94657e-06, Final residual = 5.94657e-06, No Iterations 0
smoothSolver:  Solving for k, Initial residual = 1.57241e-05, Final residual = 9.90436e-06, No Iterations 1
ExecutionTime = 9.74112 s  ClockTime = 10 s

Time = 3769s

smoothSolver:  Solving for Ux, Initial residual = 2.72884e-06, Final residual = 2.72884e-06, No Iterations 0
smoothSolver:  Solving for Uy, Initial residual = 0.000109916, Final residual = 7.29504e-06, No Iterations 4
Pressure gradient source: uncorrected Ubar = 1, pressure gradient = 0.00409682
GAMG:  Solving for p, Initial residual = 9.38084e-05, Final residual = 8.43997e-06, No Iterations 3
time step continuity errors : sum local = 1.78755e-10, global = -1.07387e-18, cumulative = 1.33422e-17
Pressure gradient source: uncorrected Ubar = 1, pressure gradient = 0.00409685
smoothSolver:  Solving for omega, Initial residual = 5.94658e-06, Final residual = 5.94658e-06, No Iterations 0
smoothSolver:  Solving for k, Initial residual = 1.57152e-05, Final residual = 9.89875e-06, No Iterations 1
ExecutionTime = 9.74344 s  ClockTime = 10 s

Time = 3770s

smoothSolver:  Solving for Ux, Initial residual = 2.71579e-06, Final residual = 2.71579e-06, No Iterations 0
smoothSolver:  Solving for Uy, Initial residual = 0.000110019, Final residual = 7.47636e-06, No Iterations 4
Pressure gradient source: uncorrected Ubar = 1, pressure gradient = 0.00409685
GAMG:  Solving for p, Initial residual = 9.20005e-05, Final residual = 9.01411e-06, No Iterations 3
time step continuity errors : sum local = 1.92184e-10, global = 3.01173e-18, cumulative = 1.6354e-17
Pressure gradient source: uncorrected Ubar = 1, pressure gradient = 0.00409688
smoothSolver:  Solving for omega, Initial residual = 5.94659e-06, Final residual = 5.94659e-06, No Iterations 0
smoothSolver:  Solving for k, Initial residual = 1.57064e-05, Final residual = 9.8931e-06, No Iterations 1
ExecutionTime = 9.74578 s  ClockTime = 10 s

Time = 3771s

smoothSolver:  Solving for Ux, Initial residual = 2.7027e-06, Final residual = 2.7027e-06, No Iterations 0
smoothSolver:  Solving for Uy, Initial residual = 0.000110002, Final residual = 7.65815e-06, No Iterations 4
Pressure gradient source: uncorrected Ubar = 1, pressure gradient = 0.00409688
GAMG:  Solving for p, Initial residual = 9.07479e-05, Final residual = 5.47745e-06, No Iterations 5
time step continuity errors : sum local = 1.28567e-10, global = 4.1533e-18, cumulative = 2.05073e-17
Pressure gradient source: uncorrected Ubar = 1, pressure gradient = 0.00409691
smoothSolver:  Solving for omega, Initial residual = 5.9466e-06, Final residual = 5.9466e-06, No Iterations 0
smoothSolver:  Solving for k, Initial residual = 1.56974e-05, Final residual = 9.88741e-06, No Iterations 1
ExecutionTime = 9.74824 s  ClockTime = 10 s

Time = 3772s

smoothSolver:  Solving for Ux, Initial residual = 2.68957e-06, Final residual = 2.68957e-06, No Iterations 0
smoothSolver:  Solving for Uy, Initial residual = 0.00011098, Final residual = 7.918e-06, No Iterations 4
Pressure gradient source: uncorrected Ubar = 1, pressure gradient = 0.00409691
GAMG:  Solving for p, Initial residual = 8.70995e-05, Final residual = 8.1798e-06, No Iterations 3
time step continuity errors : sum local = 1.77516e-10, global = 1.90797e-18, cumulative = 2.24152e-17
Pressure gradient source: uncorrected Ubar = 1, pressure gradient = 0.00409695
smoothSolver:  Solving for omega, Initial residual = 5.9466e-06, Final residual = 5.9466e-06, No Iterations 0
smoothSolver:  Solving for k, Initial residual = 1.56884e-05, Final residual = 9.88171e-06, No Iterations 1
ExecutionTime = 9.75059 s  ClockTime = 10 s

Time = 3773s

smoothSolver:  Solving for Ux, Initial residual = 2.67646e-06, Final residual = 2.67646e-06, No Iterations 0
smoothSolver:  Solving for Uy, Initial residual = 0.000108685, Final residual = 7.86804e-06, No Iterations 4
Pressure gradient source: uncorrected Ubar = 1, pressure gradient = 0.00409695
GAMG:  Solving for p, Initial residual = 8.75255e-05, Final residual = 6.07669e-06, No Iterations 5
time step continuity errors : sum local = 1.38541e-10, global = -1.12631e-17, cumulative = 1.11521e-17
Pressure gradient source: uncorrected Ubar = 1, pressure gradient = 0.00409698
smoothSolver:  Solving for omega, Initial residual = 5.94661e-06, Final residual = 5.94661e-06, No Iterations 0
smoothSolver:  Solving for k, Initial residual = 1.56793e-05, Final residual = 9.87597e-06, No Iterations 1
ExecutionTime = 9.75304 s  ClockTime = 10 s

Time = 3774s

smoothSolver:  Solving for Ux, Initial residual = 2.66337e-06, Final residual = 2.66337e-06, No Iterations 0
smoothSolver:  Solving for Uy, Initial residual = 0.000108344, Final residual = 7.96857e-06, No Iterations 4
Pressure gradient source: uncorrected Ubar = 1, pressure gradient = 0.00409698
GAMG:  Solving for p, Initial residual = 8.45294e-05, Final residual = 6.18756e-06, No Iterations 5
time step continuity errors : sum local = 1.3933e-10, global = 1.94382e-18, cumulative = 1.30959e-17
Pressure gradient source: uncorrected Ubar = 1, pressure gradient = 0.00409701
smoothSolver:  Solving for omega, Initial residual = 5.94662e-06, Final residual = 5.94662e-06, No Iterations 0
smoothSolver:  Solving for k, Initial residual = 1.56702e-05, Final residual = 9.8702e-06, No Iterations 1
ExecutionTime = 9.75547 s  ClockTime = 10 s

Time = 3775s

smoothSolver:  Solving for Ux, Initial residual = 2.65024e-06, Final residual = 2.65024e-06, No Iterations 0
smoothSolver:  Solving for Uy, Initial residual = 0.000106593, Final residual = 7.92081e-06, No Iterations 4
Pressure gradient source: uncorrected Ubar = 1, pressure gradient = 0.00409701
GAMG:  Solving for p, Initial residual = 8.30398e-05, Final residual = 6.01116e-06, No Iterations 4
time step continuity errors : sum local = 1.30865e-10, global = 9.19737e-18, cumulative = 2.22933e-17
Pressure gradient source: uncorrected Ubar = 1, pressure gradient = 0.00409704
smoothSolver:  Solving for omega, Initial residual = 5.94663e-06, Final residual = 5.94663e-06, No Iterations 0
smoothSolver:  Solving for k, Initial residual = 1.5661e-05, Final residual = 9.8644e-06, No Iterations 1
ExecutionTime = 9.75788 s  ClockTime = 10 s

Time = 3776s

smoothSolver:  Solving for Ux, Initial residual = 2.63759e-06, Final residual = 2.63759e-06, No Iterations 0
smoothSolver:  Solving for Uy, Initial residual = 0.000106639, Final residual = 8.01773e-06, No Iterations 4
Pressure gradient source: uncorrected Ubar = 1, pressure gradient = 0.00409704
GAMG:  Solving for p, Initial residual = 8.13807e-05, Final residual = 6.74499e-06, No Iterations 4
time step continuity errors : sum local = 1.4267e-10, global = 1.58109e-19, cumulative = 2.24514e-17
Pressure gradient source: uncorrected Ubar = 1, pressure gradient = 0.00409707
smoothSolver:  Solving for omega, Initial residual = 5.94664e-06, Final residual = 5.94664e-06, No Iterations 0
smoothSolver:  Solving for k, Initial residual = 1.56518e-05, Final residual = 9.85856e-06, No Iterations 1
ExecutionTime = 9.76045 s  ClockTime = 10 s

Time = 3777s

smoothSolver:  Solving for Ux, Initial residual = 2.62516e-06, Final residual = 2.62516e-06, No Iterations 0
smoothSolver:  Solving for Uy, Initial residual = 0.000102419, Final residual = 7.67719e-06, No Iterations 4
Pressure gradient source: uncorrected Ubar = 1, pressure gradient = 0.00409707
GAMG:  Solving for p, Initial residual = 8.04092e-05, Final residual = 7.46717e-06, No Iterations 4
time step continuity errors : sum local = 1.55077e-10, global = 5.88256e-19, cumulative = 2.30397e-17
Pressure gradient source: uncorrected Ubar = 1, pressure gradient = 0.00409711
smoothSolver:  Solving for omega, Initial residual = 5.94665e-06, Final residual = 5.94665e-06, No Iterations 0
smoothSolver:  Solving for k, Initial residual = 1.56425e-05, Final residual = 9.85268e-06, No Iterations 1
ExecutionTime = 9.7629 s  ClockTime = 10 s

Time = 3778s

smoothSolver:  Solving for Ux, Initial residual = 2.61269e-06, Final residual = 2.61269e-06, No Iterations 0
smoothSolver:  Solving for Uy, Initial residual = 0.000100419, Final residual = 7.54336e-06, No Iterations 4
Pressure gradient source: uncorrected Ubar = 1, pressure gradient = 0.00409711
GAMG:  Solving for p, Initial residual = 7.95038e-05, Final residual = 6.86324e-06, No Iterations 5
time step continuity errors : sum local = 1.43416e-10, global = 2.1094e-18, cumulative = 2.51491e-17
Pressure gradient source: uncorrected Ubar = 1, pressure gradient = 0.00409714
smoothSolver:  Solving for omega, Initial residual = 5.94666e-06, Final residual = 5.94666e-06, No Iterations 0
smoothSolver:  Solving for k, Initial residual = 1.56331e-05, Final residual = 9.84679e-06, No Iterations 1
ExecutionTime = 9.76534 s  ClockTime = 10 s

Time = 3779s

smoothSolver:  Solving for Ux, Initial residual = 2.60019e-06, Final residual = 2.60019e-06, No Iterations 0
smoothSolver:  Solving for Uy, Initial residual = 9.98658e-05, Final residual = 7.48963e-06, No Iterations 4
Pressure gradient source: uncorrected Ubar = 1, pressure gradient = 0.00409714
GAMG:  Solving for p, Initial residual = 7.83636e-05, Final residual = 7.80906e-06, No Iterations 4
time step continuity errors : sum local = 1.60398e-10, global = -5.8689e-19, cumulative = 2.45622e-17
Pressure gradient source: uncorrected Ubar = 1, pressure gradient = 0.00409717
smoothSolver:  Solving for omega, Initial residual = 5.94667e-06, Final residual = 5.94667e-06, No Iterations 0
smoothSolver:  Solving for k, Initial residual = 1.56237e-05, Final residual = 9.84086e-06, No Iterations 1
ExecutionTime = 9.76775 s  ClockTime = 10 s


SIMPLE solution converged in 3779 iterations

End

