/*---------------------------------------------------------------------------*\
  =========                 |
  \\      /  F ield         | OpenFOAM: The Open Source CFD Toolbox
   \\    /   O peration     | Website:  https://openfoam.org
    \\  /    A nd           | Version:  10
     \\/     M anipulation  |
\*---------------------------------------------------------------------------*/
Build  : 10-e450dce21ea5
Exec   : blockMesh
Date   : Jan 16 2023
Time   : 11:43:59
Host   : "w530-R9YK46P"
PID    : 14434
I/O    : uncollated
Case   : /home/jdmezazeron/gitDanielMezaZ/turbulenceVisualized/Data/SimulationFiles/E24_Re13110
nProcs : 1
sigFpe : Enabling floating point exception trapping (FOAM_SIGFPE).
fileModificationChecking : Monitoring run-time modified files using timeStampMaster (fileModificationSkew 10)
allowSystemOperations : Allowing user-supplied system call operations

// * * * * * * * * * * * * * * * * * * * * * * * * * * * * * * * * * * * * * //
Create time

Reading "blockMeshDict"

Creating block mesh from
    "system/blockMeshDict"
Creating block edges
No non-planar block faces defined
Creating topology blocks
Creating topology patches

Creating block mesh topology

Check topology

	Basic statistics
		Number of internal faces : 0
		Number of boundary faces : 6
		Number of defined boundary faces : 6
		Number of undefined boundary faces : 0
	Checking patch -> block consistency

Creating block offsets
Creating merge list .

Creating polyMesh from blockMesh
Creating patches
Creating cells
Creating points with scale 1
    Block 0 cell size :
        i : 0.5
        j : 0.00921276 .. 0.036851
        k : 2

Detected cyclic patches; ordering boundary faces

Writing polyMesh
----------------
Mesh Information
----------------
  boundingBox: (-1 0 -1) (1 1 1)
  nPoints: 510
  nCells: 200
  nFaces: 854
  nInternalFaces: 346
----------------
Patches
----------------
  patch 0 (start: 346 size: 50) name: inlet
  patch 1 (start: 396 size: 50) name: outlet
  patch 2 (start: 446 size: 4) name: fixedWalls-bottom
  patch 3 (start: 450 size: 4) name: fixedWalls-top
  patch 4 (start: 454 size: 400) name: frontAndBack

End

/*---------------------------------------------------------------------------*\
  =========                 |
  \\      /  F ield         | OpenFOAM: The Open Source CFD Toolbox
   \\    /   O peration     | Website:  https://openfoam.org
    \\  /    A nd           | Version:  10
     \\/     M anipulation  |
\*---------------------------------------------------------------------------*/
Build  : 10-e450dce21ea5
Exec   : simpleFoam
Date   : Jan 16 2023
Time   : 11:43:59
Host   : "w530-R9YK46P"
PID    : 14435
I/O    : uncollated
Case   : /home/jdmezazeron/gitDanielMezaZ/turbulenceVisualized/Data/SimulationFiles/E24_Re13110
nProcs : 1
sigFpe : Enabling floating point exception trapping (FOAM_SIGFPE).
fileModificationChecking : Monitoring run-time modified files using timeStampMaster (fileModificationSkew 10)
allowSystemOperations : Allowing user-supplied system call operations

// * * * * * * * * * * * * * * * * * * * * * * * * * * * * * * * * * * * * * //
Create time

Create mesh for time = 0


SIMPLE: Convergence criteria found
        U: tolerance 0.01
        p: tolerance 0.01
        omega: tolerance 0.0001

Reading field p

Reading field U

Reading/calculating face flux field phi

Selecting viscosity model Newtonian
Selecting turbulence model type RAS
Selecting RAS turbulence model kOmegaSST
Selecting patchDistMethod meshWave
RAS
{
    RASModel        kOmegaSST;
    turbulence      on;
    printCoeffs     on;
    alphaK1         0.85;
    alphaK2         1;
    alphaOmega1     0.5;
    alphaOmega2     0.856;
    gamma1          0.555556;
    gamma2          0.44;
    beta1           0.075;
    beta2           0.0828;
    betaStar        0.09;
    a1              0.31;
    b1              1;
    c1              10;
    F3              false;
}

No MRF models present

--> FOAM Warning : Creating fvModels from "system/fvOptions" rather than constant/fvModels
No fvModels present
--> FOAM Warning : Creating fvConstraints from "system/fvOptions"

Selecting finite volume constraint type meanVelocityForce
    Name: momentumSource
    - selecting all cells
    - selected 200 cell(s) with volume 4
    Initial pressure gradient = 0


Starting time loop

turbulenceFields stressComponents: storing fields:
    R

Time = 1s

smoothSolver:  Solving for Ux, Initial residual = 0, Final residual = 0, No Iterations 0
smoothSolver:  Solving for Uy, Initial residual = 0, Final residual = 0, No Iterations 0
Pressure gradient source: uncorrected Ubar = 0, pressure gradient = 1.29985
GAMG:  Solving for p, Initial residual = 0.999991, Final residual = 0.0475058, No Iterations 3
time step continuity errors : sum local = 8.21311e-17, global = 7.28792e-18, cumulative = 7.28792e-18
Pressure gradient source: uncorrected Ubar = 0.869397, pressure gradient = 0.169765
smoothSolver:  Solving for omega, Initial residual = 0.458645, Final residual = 0.0346061, No Iterations 1
bounding omega, min: -12.4254 max: 575.341 average: 27.0785
smoothSolver:  Solving for k, Initial residual = 1, Final residual = 0.0475801, No Iterations 2
ExecutionTime = 0.012572 s  ClockTime = 0 s

Time = 2s

smoothSolver:  Solving for Ux, Initial residual = 0.129146, Final residual = 0.0111517, No Iterations 5
smoothSolver:  Solving for Uy, Initial residual = 1, Final residual = 0.0835599, No Iterations 2
Pressure gradient source: uncorrected Ubar = 1.14404, pressure gradient = -0.758317
GAMG:  Solving for p, Initial residual = 1, Final residual = 0.0987717, No Iterations 7
time step continuity errors : sum local = 0.00604595, global = 1.32002e-17, cumulative = 2.04881e-17
Pressure gradient source: uncorrected Ubar = 1.03447, pressure gradient = -0.0523224
smoothSolver:  Solving for omega, Initial residual = 0.0616648, Final residual = 0.00230484, No Iterations 2
smoothSolver:  Solving for k, Initial residual = 0.264871, Final residual = 0.022134, No Iterations 3
ExecutionTime = 0.01477 s  ClockTime = 0 s

Time = 3s

smoothSolver:  Solving for Ux, Initial residual = 0.148836, Final residual = 0.0141898, No Iterations 4
smoothSolver:  Solving for Uy, Initial residual = 0.590495, Final residual = 0.0354276, No Iterations 3
Pressure gradient source: uncorrected Ubar = 0.949309, pressure gradient = 0.450435
GAMG:  Solving for p, Initial residual = 0.118522, Final residual = 0.0105088, No Iterations 4
time step continuity errors : sum local = 0.0023286, global = -7.67073e-18, cumulative = 1.28174e-17
Pressure gradient source: uncorrected Ubar = 0.992316, pressure gradient = 0.0238851
smoothSolver:  Solving for omega, Initial residual = 0.0133932, Final residual = 0.000882823, No Iterations 2
smoothSolver:  Solving for k, Initial residual = 0.199381, Final residual = 0.0134833, No Iterations 2
ExecutionTime = 0.016728 s  ClockTime = 0 s

Time = 4s

smoothSolver:  Solving for Ux, Initial residual = 0.0776492, Final residual = 0.00659533, No Iterations 4
smoothSolver:  Solving for Uy, Initial residual = 0.484352, Final residual = 0.0275456, No Iterations 3
Pressure gradient source: uncorrected Ubar = 1.00519, pressure gradient = -0.0305501
GAMG:  Solving for p, Initial residual = 0.035197, Final residual = 0.0029396, No Iterations 13
time step continuity errors : sum local = 0.00140365, global = 1.38215e-18, cumulative = 1.41995e-17
Pressure gradient source: uncorrected Ubar = 1.00079, pressure gradient = 0.0156031
smoothSolver:  Solving for omega, Initial residual = 0.00642359, Final residual = 0.000428255, No Iterations 2
smoothSolver:  Solving for k, Initial residual = 0.100721, Final residual = 0.00614299, No Iterations 3
ExecutionTime = 0.018986 s  ClockTime = 0 s

Time = 5s

smoothSolver:  Solving for Ux, Initial residual = 0.0466339, Final residual = 0.00331309, No Iterations 5
smoothSolver:  Solving for Uy, Initial residual = 0.514838, Final residual = 0.0322497, No Iterations 3
Pressure gradient source: uncorrected Ubar = 1.00175, pressure gradient = -0.00426105
GAMG:  Solving for p, Initial residual = 0.0571215, Final residual = 0.00428052, No Iterations 6
time step continuity errors : sum local = 0.000872225, global = 3.28649e-18, cumulative = 1.7486e-17
Pressure gradient source: uncorrected Ubar = 1.00026, pressure gradient = 0.0126179
smoothSolver:  Solving for omega, Initial residual = 0.00346689, Final residual = 0.000187901, No Iterations 3
smoothSolver:  Solving for k, Initial residual = 0.0769619, Final residual = 0.00433799, No Iterations 4
ExecutionTime = 0.02117 s  ClockTime = 0 s

Time = 6s

smoothSolver:  Solving for Ux, Initial residual = 0.0349134, Final residual = 0.00271796, No Iterations 5
smoothSolver:  Solving for Uy, Initial residual = 0.395024, Final residual = 0.0270529, No Iterations 3
Pressure gradient source: uncorrected Ubar = 1.00153, pressure gradient = -0.00555521
GAMG:  Solving for p, Initial residual = 0.147506, Final residual = 0.0143174, No Iterations 14
time step continuity errors : sum local = 0.000761418, global = 7.94857e-18, cumulative = 2.54346e-17
Pressure gradient source: uncorrected Ubar = 1.00022, pressure gradient = 0.0099745
smoothSolver:  Solving for omega, Initial residual = 0.00211382, Final residual = 0.000153137, No Iterations 3
smoothSolver:  Solving for k, Initial residual = 0.0662119, Final residual = 0.00355815, No Iterations 4
ExecutionTime = 0.023582 s  ClockTime = 0 s

Time = 7s

smoothSolver:  Solving for Ux, Initial residual = 0.0266484, Final residual = 0.00228177, No Iterations 5
smoothSolver:  Solving for Uy, Initial residual = 0.456437, Final residual = 0.0280223, No Iterations 3
Pressure gradient source: uncorrected Ubar = 1.00178, pressure gradient = -0.0120353
GAMG:  Solving for p, Initial residual = 0.0991365, Final residual = 0.00941491, No Iterations 13
time step continuity errors : sum local = 0.000517236, global = 5.62748e-18, cumulative = 3.1062e-17
Pressure gradient source: uncorrected Ubar = 1.00025, pressure gradient = 0.00687252
smoothSolver:  Solving for omega, Initial residual = 0.0015296, Final residual = 0.000109666, No Iterations 4
smoothSolver:  Solving for k, Initial residual = 0.060876, Final residual = 0.00373483, No Iterations 5
ExecutionTime = 0.025993 s  ClockTime = 0 s

Time = 8s

smoothSolver:  Solving for Ux, Initial residual = 0.0210172, Final residual = 0.00191661, No Iterations 5
smoothSolver:  Solving for Uy, Initial residual = 0.470392, Final residual = 0.029142, No Iterations 3
Pressure gradient source: uncorrected Ubar = 1.00088, pressure gradient = -0.00457076
GAMG:  Solving for p, Initial residual = 0.0471617, Final residual = 0.00415394, No Iterations 6
time step continuity errors : sum local = 0.000380701, global = -2.29631e-18, cumulative = 2.87657e-17
Pressure gradient source: uncorrected Ubar = 1.00012, pressure gradient = 0.0052959
smoothSolver:  Solving for omega, Initial residual = 0.00104479, Final residual = 9.20438e-05, No Iterations 4
smoothSolver:  Solving for k, Initial residual = 0.0531894, Final residual = 0.00387515, No Iterations 5
ExecutionTime = 0.028185 s  ClockTime = 0 s

Time = 9s

smoothSolver:  Solving for Ux, Initial residual = 0.0173042, Final residual = 0.00168811, No Iterations 5
smoothSolver:  Solving for Uy, Initial residual = 0.457465, Final residual = 0.0313499, No Iterations 3
Pressure gradient source: uncorrected Ubar = 1.00076, pressure gradient = -0.00493817
GAMG:  Solving for p, Initial residual = 0.0311977, Final residual = 0.00303517, No Iterations 4
time step continuity errors : sum local = 0.0002941, global = -4.54603e-18, cumulative = 2.42197e-17
Pressure gradient source: uncorrected Ubar = 1.0001, pressure gradient = 0.00390338
smoothSolver:  Solving for omega, Initial residual = 0.000800473, Final residual = 4.32859e-05, No Iterations 4
smoothSolver:  Solving for k, Initial residual = 0.0468497, Final residual = 0.00456893, No Iterations 4
ExecutionTime = 0.030261 s  ClockTime = 0 s

Time = 10s

smoothSolver:  Solving for Ux, Initial residual = 0.0146005, Final residual = 0.0010045, No Iterations 6
smoothSolver:  Solving for Uy, Initial residual = 0.502101, Final residual = 0.0320793, No Iterations 3
Pressure gradient source: uncorrected Ubar = 1.00041, pressure gradient = -0.00187541
GAMG:  Solving for p, Initial residual = 0.0245164, Final residual = 0.00225007, No Iterations 15
time step continuity errors : sum local = 0.00024844, global = -8.5238e-19, cumulative = 2.33673e-17
Pressure gradient source: uncorrected Ubar = 1.00005, pressure gradient = 0.00314618
smoothSolver:  Solving for omega, Initial residual = 0.000654538, Final residual = 5.14732e-05, No Iterations 4
smoothSolver:  Solving for k, Initial residual = 0.0435857, Final residual = 0.00270839, No Iterations 5
ExecutionTime = 0.032707 s  ClockTime = 0 s

Time = 11s

smoothSolver:  Solving for Ux, Initial residual = 0.0127514, Final residual = 0.000933105, No Iterations 6
smoothSolver:  Solving for Uy, Initial residual = 0.511403, Final residual = 0.0360619, No Iterations 3
Pressure gradient source: uncorrected Ubar = 1.00036, pressure gradient = -0.00205132
GAMG:  Solving for p, Initial residual = 0.0259302, Final residual = 0.0023313, No Iterations 15
time step continuity errors : sum local = 0.000210201, global = -9.44955e-18, cumulative = 1.39178e-17
Pressure gradient source: uncorrected Ubar = 1.00005, pressure gradient = 0.00245575
smoothSolver:  Solving for omega, Initial residual = 0.000580145, Final residual = 5.57319e-05, No Iterations 4
smoothSolver:  Solving for k, Initial residual = 0.0401081, Final residual = 0.0023266, No Iterations 5
ExecutionTime = 0.03514 s  ClockTime = 0 s

Time = 12s

smoothSolver:  Solving for Ux, Initial residual = 0.0113141, Final residual = 0.000872092, No Iterations 6
smoothSolver:  Solving for Uy, Initial residual = 0.507408, Final residual = 0.0356291, No Iterations 3
Pressure gradient source: uncorrected Ubar = 1.00023, pressure gradient = -0.000923569
GAMG:  Solving for p, Initial residual = 0.0317138, Final residual = 0.00260284, No Iterations 17
time step continuity errors : sum local = 0.000164264, global = -2.20906e-18, cumulative = 1.17087e-17
Pressure gradient source: uncorrected Ubar = 1.00003, pressure gradient = 0.00201165
smoothSolver:  Solving for omega, Initial residual = 0.000464671, Final residual = 3.75362e-05, No Iterations 4
smoothSolver:  Solving for k, Initial residual = 0.0376149, Final residual = 0.00231943, No Iterations 5
ExecutionTime = 0.037643 s  ClockTime = 0 s

Time = 13s

smoothSolver:  Solving for Ux, Initial residual = 0.0102128, Final residual = 0.000821746, No Iterations 6
smoothSolver:  Solving for Uy, Initial residual = 0.408166, Final residual = 0.0337523, No Iterations 3
Pressure gradient source: uncorrected Ubar = 1.00014, pressure gradient = -0.000141229
GAMG:  Solving for p, Initial residual = 0.0454894, Final residual = 0.00353386, No Iterations 13
time step continuity errors : sum local = 0.000128101, global = -5.46506e-18, cumulative = 6.24365e-18
Pressure gradient source: uncorrected Ubar = 1.00002, pressure gradient = 0.00172761
smoothSolver:  Solving for omega, Initial residual = 0.000432962, Final residual = 2.77522e-05, No Iterations 5
smoothSolver:  Solving for k, Initial residual = 0.0326201, Final residual = 0.00202044, No Iterations 5
ExecutionTime = 0.040031 s  ClockTime = 0 s

Time = 14s

smoothSolver:  Solving for Ux, Initial residual = 0.00931631, Final residual = 0.000775049, No Iterations 6
smoothSolver:  Solving for Uy, Initial residual = 0.340386, Final residual = 0.0264679, No Iterations 3
Pressure gradient source: uncorrected Ubar = 1.00012, pressure gradient = -0.000117966
GAMG:  Solving for p, Initial residual = 0.0807434, Final residual = 0.00703772, No Iterations 13
time step continuity errors : sum local = 9.98101e-05, global = -4.74127e-19, cumulative = 5.76952e-18
Pressure gradient source: uncorrected Ubar = 1.00002, pressure gradient = 0.00148378
smoothSolver:  Solving for omega, Initial residual = 0.000356033, Final residual = 2.12847e-05, No Iterations 5
smoothSolver:  Solving for k, Initial residual = 0.0304515, Final residual = 0.00242833, No Iterations 5
ExecutionTime = 0.042359 s  ClockTime = 0 s

Time = 15s

smoothSolver:  Solving for Ux, Initial residual = 0.00863363, Final residual = 0.000745291, No Iterations 6
smoothSolver:  Solving for Uy, Initial residual = 0.360218, Final residual = 0.0256154, No Iterations 3
Pressure gradient source: uncorrected Ubar = 1.00007, pressure gradient = 0.000273496
GAMG:  Solving for p, Initial residual = 0.0439221, Final residual = 0.00424985, No Iterations 9
time step continuity errors : sum local = 7.92814e-05, global = -4.43504e-18, cumulative = 1.33449e-18
Pressure gradient source: uncorrected Ubar = 1.00001, pressure gradient = 0.00132615
smoothSolver:  Solving for omega, Initial residual = 0.000329696, Final residual = 2.17161e-05, No Iterations 5
smoothSolver:  Solving for k, Initial residual = 0.0272761, Final residual = 0.00237242, No Iterations 5
ExecutionTime = 0.044518 s  ClockTime = 0 s

Time = 16s

smoothSolver:  Solving for Ux, Initial residual = 0.0083051, Final residual = 0.000724644, No Iterations 6
smoothSolver:  Solving for Uy, Initial residual = 0.380049, Final residual = 0.0361251, No Iterations 3
Pressure gradient source: uncorrected Ubar = 1.00003, pressure gradient = 0.000743902
GAMG:  Solving for p, Initial residual = 0.0284589, Final residual = 0.00284469, No Iterations 7
time step continuity errors : sum local = 6.11313e-05, global = 6.56133e-18, cumulative = 7.89581e-18
Pressure gradient source: uncorrected Ubar = 1, pressure gradient = 0.00125681
smoothSolver:  Solving for omega, Initial residual = 0.00028629, Final residual = 2.44676e-05, No Iterations 5
smoothSolver:  Solving for k, Initial residual = 0.0233939, Final residual = 0.00191688, No Iterations 5
ExecutionTime = 0.046632 s  ClockTime = 0 s

Time = 17s

smoothSolver:  Solving for Ux, Initial residual = 0.00814945, Final residual = 0.000699317, No Iterations 6
smoothSolver:  Solving for Uy, Initial residual = 0.422561, Final residual = 0.0405067, No Iterations 3
Pressure gradient source: uncorrected Ubar = 1.00004, pressure gradient = 0.000592537
GAMG:  Solving for p, Initial residual = 0.027341, Final residual = 0.00264757, No Iterations 10
time step continuity errors : sum local = 5.29826e-05, global = -2.41756e-18, cumulative = 5.47825e-18
Pressure gradient source: uncorrected Ubar = 1, pressure gradient = 0.00117173
smoothSolver:  Solving for omega, Initial residual = 0.000266045, Final residual = 1.6182e-05, No Iterations 5
smoothSolver:  Solving for k, Initial residual = 0.0202781, Final residual = 0.00166073, No Iterations 5
ExecutionTime = 0.048808 s  ClockTime = 0 s

Time = 18s

smoothSolver:  Solving for Ux, Initial residual = 0.00805866, Final residual = 0.000681971, No Iterations 6
smoothSolver:  Solving for Uy, Initial residual = 0.47782, Final residual = 0.0368864, No Iterations 3
Pressure gradient source: uncorrected Ubar = 1.00001, pressure gradient = 0.00103029
GAMG:  Solving for p, Initial residual = 0.0301001, Final residual = 0.00285424, No Iterations 11
time step continuity errors : sum local = 5.18835e-05, global = -4.16314e-18, cumulative = 1.31511e-18
Pressure gradient source: uncorrected Ubar = 1, pressure gradient = 0.0011608
smoothSolver:  Solving for omega, Initial residual = 0.000252612, Final residual = 1.58126e-05, No Iterations 5
smoothSolver:  Solving for k, Initial residual = 0.0173011, Final residual = 0.00112007, No Iterations 5
ExecutionTime = 0.050996 s  ClockTime = 0 s

Time = 19s

smoothSolver:  Solving for Ux, Initial residual = 0.00792956, Final residual = 0.000660903, No Iterations 6
smoothSolver:  Solving for Uy, Initial residual = 0.4484, Final residual = 0.0386515, No Iterations 3
Pressure gradient source: uncorrected Ubar = 1.00001, pressure gradient = 0.000943405
GAMG:  Solving for p, Initial residual = 0.0346772, Final residual = 0.0033864, No Iterations 13
time step continuity errors : sum local = 4.41498e-05, global = -1.10631e-17, cumulative = -9.74799e-18
Pressure gradient source: uncorrected Ubar = 1, pressure gradient = 0.00113547
smoothSolver:  Solving for omega, Initial residual = 0.000238255, Final residual = 1.53487e-05, No Iterations 5
smoothSolver:  Solving for k, Initial residual = 0.0161211, Final residual = 0.00120909, No Iterations 5
ExecutionTime = 0.053202 s  ClockTime = 0 s

Time = 20s

smoothSolver:  Solving for Ux, Initial residual = 0.00782931, Final residual = 0.00064408, No Iterations 6
smoothSolver:  Solving for Uy, Initial residual = 0.379803, Final residual = 0.0351801, No Iterations 3
Pressure gradient source: uncorrected Ubar = 0.999993, pressure gradient = 0.00126474
GAMG:  Solving for p, Initial residual = 0.0379232, Final residual = 0.00355052, No Iterations 13
time step continuity errors : sum local = 3.69791e-05, global = 9.34486e-18, cumulative = -4.0313e-19
Pressure gradient source: uncorrected Ubar = 0.999999, pressure gradient = 0.00115898
smoothSolver:  Solving for omega, Initial residual = 0.000231383, Final residual = 1.80126e-05, No Iterations 4
smoothSolver:  Solving for k, Initial residual = 0.0146613, Final residual = 0.000999484, No Iterations 5
ExecutionTime = 0.055431 s  ClockTime = 0 s

Time = 21s

smoothSolver:  Solving for Ux, Initial residual = 0.0077445, Final residual = 0.000630577, No Iterations 6
smoothSolver:  Solving for Uy, Initial residual = 0.369466, Final residual = 0.0260053, No Iterations 3
Pressure gradient source: uncorrected Ubar = 0.99998, pressure gradient = 0.00154679
GAMG:  Solving for p, Initial residual = 0.0411153, Final residual = 0.00379955, No Iterations 16
time step continuity errors : sum local = 3.12751e-05, global = -2.97054e-18, cumulative = -3.37367e-18
Pressure gradient source: uncorrected Ubar = 0.999997, pressure gradient = 0.00121809
smoothSolver:  Solving for omega, Initial residual = 0.000228014, Final residual = 1.44733e-05, No Iterations 5
smoothSolver:  Solving for k, Initial residual = 0.0128998, Final residual = 0.000873304, No Iterations 5
ExecutionTime = 0.057936 s  ClockTime = 0 s

Time = 22s

smoothSolver:  Solving for Ux, Initial residual = 0.00763993, Final residual = 0.000615649, No Iterations 6
smoothSolver:  Solving for Uy, Initial residual = 0.42151, Final residual = 0.0379, No Iterations 3
Pressure gradient source: uncorrected Ubar = 0.999982, pressure gradient = 0.00157641
GAMG:  Solving for p, Initial residual = 0.0380723, Final residual = 0.00377165, No Iterations 17
time step continuity errors : sum local = 2.40021e-05, global = -1.23243e-17, cumulative = -1.5698e-17
Pressure gradient source: uncorrected Ubar = 0.999997, pressure gradient = 0.00127049
smoothSolver:  Solving for omega, Initial residual = 0.000223164, Final residual = 1.5916e-05, No Iterations 5
smoothSolver:  Solving for k, Initial residual = 0.0120972, Final residual = 0.000849735, No Iterations 5
ExecutionTime = 0.060466 s  ClockTime = 0 s

Time = 23s

smoothSolver:  Solving for Ux, Initial residual = 0.00752498, Final residual = 0.000600362, No Iterations 6
smoothSolver:  Solving for Uy, Initial residual = 0.55249, Final residual = 0.0525712, No Iterations 3
Pressure gradient source: uncorrected Ubar = 0.999984, pressure gradient = 0.00160077
GAMG:  Solving for p, Initial residual = 0.0319413, Final residual = 0.00294904, No Iterations 15
time step continuity errors : sum local = 2.04478e-05, global = -6.62168e-18, cumulative = -2.23197e-17
Pressure gradient source: uncorrected Ubar = 0.999998, pressure gradient = 0.00131572
smoothSolver:  Solving for omega, Initial residual = 0.000221535, Final residual = 1.42063e-05, No Iterations 5
smoothSolver:  Solving for k, Initial residual = 0.0116818, Final residual = 0.000794659, No Iterations 5
ExecutionTime = 0.062855 s  ClockTime = 0 s

Time = 24s

smoothSolver:  Solving for Ux, Initial residual = 0.00741706, Final residual = 0.000586982, No Iterations 6
smoothSolver:  Solving for Uy, Initial residual = 0.607443, Final residual = 0.0502854, No Iterations 3
Pressure gradient source: uncorrected Ubar = 0.999977, pressure gradient = 0.0017927
GAMG:  Solving for p, Initial residual = 0.0271572, Final residual = 0.00261972, No Iterations 9
time step continuity errors : sum local = 1.78455e-05, global = 7.05324e-18, cumulative = -1.52664e-17
Pressure gradient source: uncorrected Ubar = 0.999997, pressure gradient = 0.0013799
smoothSolver:  Solving for omega, Initial residual = 0.000215492, Final residual = 1.59448e-05, No Iterations 5
smoothSolver:  Solving for k, Initial residual = 0.0110178, Final residual = 0.000797489, No Iterations 5
ExecutionTime = 0.065014 s  ClockTime = 0 s

Time = 25s

smoothSolver:  Solving for Ux, Initial residual = 0.00730231, Final residual = 0.000572746, No Iterations 6
smoothSolver:  Solving for Uy, Initial residual = 0.417943, Final residual = 0.0365281, No Iterations 3
Pressure gradient source: uncorrected Ubar = 0.99998, pressure gradient = 0.00181097
GAMG:  Solving for p, Initial residual = 0.0242679, Final residual = 0.00217898, No Iterations 4
time step continuity errors : sum local = 1.35823e-05, global = -9.51568e-18, cumulative = -2.47821e-17
Pressure gradient source: uncorrected Ubar = 0.999997, pressure gradient = 0.00143395
smoothSolver:  Solving for omega, Initial residual = 0.000212711, Final residual = 2.11129e-05, No Iterations 4
smoothSolver:  Solving for k, Initial residual = 0.0102517, Final residual = 0.000756537, No Iterations 5
ExecutionTime = 0.067038 s  ClockTime = 0 s

Time = 26s

smoothSolver:  Solving for Ux, Initial residual = 0.00720612, Final residual = 0.000560165, No Iterations 6
smoothSolver:  Solving for Uy, Initial residual = 0.256911, Final residual = 0.0244254, No Iterations 3
Pressure gradient source: uncorrected Ubar = 0.999977, pressure gradient = 0.00194064
GAMG:  Solving for p, Initial residual = 0.0227581, Final residual = 0.00130327, No Iterations 3
time step continuity errors : sum local = 6.78326e-06, global = -2.13643e-18, cumulative = -2.69186e-17
Pressure gradient source: uncorrected Ubar = 0.999997, pressure gradient = 0.00149655
smoothSolver:  Solving for omega, Initial residual = 0.000207452, Final residual = 1.68351e-05, No Iterations 4
smoothSolver:  Solving for k, Initial residual = 0.0100087, Final residual = 0.000734226, No Iterations 5
ExecutionTime = 0.068999 s  ClockTime = 0 s

Time = 27s

smoothSolver:  Solving for Ux, Initial residual = 0.00711224, Final residual = 0.000548579, No Iterations 6
smoothSolver:  Solving for Uy, Initial residual = 0.19702, Final residual = 0.017047, No Iterations 3
Pressure gradient source: uncorrected Ubar = 0.999974, pressure gradient = 0.00205712
GAMG:  Solving for p, Initial residual = 0.0224882, Final residual = 0.00191679, No Iterations 3
time step continuity errors : sum local = 1.00794e-05, global = 8.54137e-18, cumulative = -1.83772e-17
Pressure gradient source: uncorrected Ubar = 0.999997, pressure gradient = 0.001565
smoothSolver:  Solving for omega, Initial residual = 0.00021516, Final residual = 1.41725e-05, No Iterations 5
smoothSolver:  Solving for k, Initial residual = 0.00917411, Final residual = 0.00071964, No Iterations 5
ExecutionTime = 0.070989 s  ClockTime = 0 s

Time = 28s

smoothSolver:  Solving for Ux, Initial residual = 0.00701193, Final residual = 0.000536743, No Iterations 6
smoothSolver:  Solving for Uy, Initial residual = 0.172341, Final residual = 0.0152433, No Iterations 3
Pressure gradient source: uncorrected Ubar = 0.999976, pressure gradient = 0.00211295
GAMG:  Solving for p, Initial residual = 0.0222101, Final residual = 0.00205227, No Iterations 11
time step continuity errors : sum local = 1.06019e-05, global = 1.26853e-18, cumulative = -1.71087e-17
Pressure gradient source: uncorrected Ubar = 0.999997, pressure gradient = 0.00162869
smoothSolver:  Solving for omega, Initial residual = 0.000210271, Final residual = 1.45336e-05, No Iterations 5
smoothSolver:  Solving for k, Initial residual = 0.00918609, Final residual = 0.000779517, No Iterations 5
ExecutionTime = 0.073191 s  ClockTime = 0 s

Time = 29s

smoothSolver:  Solving for Ux, Initial residual = 0.00689986, Final residual = 0.000523826, No Iterations 6
smoothSolver:  Solving for Uy, Initial residual = 0.16777, Final residual = 0.0163505, No Iterations 3
Pressure gradient source: uncorrected Ubar = 0.999981, pressure gradient = 0.00206065
GAMG:  Solving for p, Initial residual = 0.0272936, Final residual = 0.00246856, No Iterations 17
time step continuity errors : sum local = 8.73481e-06, global = -5.10464e-18, cumulative = -2.22133e-17
Pressure gradient source: uncorrected Ubar = 0.999998, pressure gradient = 0.00167177
smoothSolver:  Solving for omega, Initial residual = 0.000206387, Final residual = 2.05991e-05, No Iterations 4
smoothSolver:  Solving for k, Initial residual = 0.00840603, Final residual = 0.000662133, No Iterations 5
ExecutionTime = 0.075757 s  ClockTime = 0 s

Time = 30s

smoothSolver:  Solving for Ux, Initial residual = 0.006807, Final residual = 0.000513098, No Iterations 6
smoothSolver:  Solving for Uy, Initial residual = 0.171507, Final residual = 0.0163964, No Iterations 3
Pressure gradient source: uncorrected Ubar = 0.999977, pressure gradient = 0.0021996
GAMG:  Solving for p, Initial residual = 0.0426468, Final residual = 0.00379839, No Iterations 14
time step continuity errors : sum local = 7.41198e-06, global = 4.86493e-18, cumulative = -1.73484e-17
Pressure gradient source: uncorrected Ubar = 0.999998, pressure gradient = 0.001727
smoothSolver:  Solving for omega, Initial residual = 0.000202572, Final residual = 1.77852e-05, No Iterations 4
smoothSolver:  Solving for k, Initial residual = 0.00775712, Final residual = 0.000559824, No Iterations 5
ExecutionTime = 0.078131 s  ClockTime = 0 s

Time = 31s

smoothSolver:  Solving for Ux, Initial residual = 0.00672268, Final residual = 0.000503551, No Iterations 6
smoothSolver:  Solving for Uy, Initial residual = 0.172884, Final residual = 0.0141813, No Iterations 3
Pressure gradient source: uncorrected Ubar = 0.999976, pressure gradient = 0.00230283
GAMG:  Solving for p, Initial residual = 0.0555673, Final residual = 0.0051633, No Iterations 13
time step continuity errors : sum local = 7.31192e-06, global = 7.34728e-18, cumulative = -1.00011e-17
Pressure gradient source: uncorrected Ubar = 0.999997, pressure gradient = 0.00178696
smoothSolver:  Solving for omega, Initial residual = 0.000203523, Final residual = 1.99029e-05, No Iterations 4
smoothSolver:  Solving for k, Initial residual = 0.00720137, Final residual = 0.000606492, No Iterations 5
ExecutionTime = 0.080455 s  ClockTime = 0 s

Time = 32s

smoothSolver:  Solving for Ux, Initial residual = 0.00662561, Final residual = 0.000492676, No Iterations 6
smoothSolver:  Solving for Uy, Initial residual = 0.157971, Final residual = 0.0137204, No Iterations 3
Pressure gradient source: uncorrected Ubar = 0.999982, pressure gradient = 0.00221257
GAMG:  Solving for p, Initial residual = 0.0313769, Final residual = 0.00261135, No Iterations 13
time step continuity errors : sum local = 5.7204e-06, global = -4.97083e-18, cumulative = -1.49719e-17
Pressure gradient source: uncorrected Ubar = 0.999999, pressure gradient = 0.0018212
smoothSolver:  Solving for omega, Initial residual = 0.000199114, Final residual = 1.66645e-05, No Iterations 4
smoothSolver:  Solving for k, Initial residual = 0.00684914, Final residual = 0.000657632, No Iterations 5
ExecutionTime = 0.082768 s  ClockTime = 0 s

Time = 33s

smoothSolver:  Solving for Ux, Initial residual = 0.00654482, Final residual = 0.00048355, No Iterations 6
smoothSolver:  Solving for Uy, Initial residual = 0.148953, Final residual = 0.0140498, No Iterations 3
Pressure gradient source: uncorrected Ubar = 0.999979, pressure gradient = 0.00234558
GAMG:  Solving for p, Initial residual = 0.022254, Final residual = 0.00216561, No Iterations 13
time step continuity errors : sum local = 5.50589e-06, global = 1.17559e-20, cumulative = -1.49601e-17
Pressure gradient source: uncorrected Ubar = 0.999998, pressure gradient = 0.00186833
smoothSolver:  Solving for omega, Initial residual = 0.000199894, Final residual = 1.25906e-05, No Iterations 5
smoothSolver:  Solving for k, Initial residual = 0.00623652, Final residual = 0.000524032, No Iterations 5
ExecutionTime = 0.084977 s  ClockTime = 0 s

Time = 34s

smoothSolver:  Solving for Ux, Initial residual = 0.00646736, Final residual = 0.000475043, No Iterations 6
smoothSolver:  Solving for Uy, Initial residual = 0.155135, Final residual = 0.0131193, No Iterations 3
Pressure gradient source: uncorrected Ubar = 0.999979, pressure gradient = 0.00238975
GAMG:  Solving for p, Initial residual = 0.0191605, Final residual = 0.00176466, No Iterations 9
time step continuity errors : sum local = 4.69138e-06, global = -1.34036e-18, cumulative = -1.63005e-17
Pressure gradient source: uncorrected Ubar = 0.999998, pressure gradient = 0.00191268
smoothSolver:  Solving for omega, Initial residual = 0.000193317, Final residual = 1.27623e-05, No Iterations 5
smoothSolver:  Solving for k, Initial residual = 0.00566045, Final residual = 0.00042522, No Iterations 5
ExecutionTime = 0.08711 s  ClockTime = 0 s

Time = 35s

smoothSolver:  Solving for Ux, Initial residual = 0.0063988, Final residual = 0.000467711, No Iterations 6
smoothSolver:  Solving for Uy, Initial residual = 0.184627, Final residual = 0.0170159, No Iterations 3
Pressure gradient source: uncorrected Ubar = 0.999977, pressure gradient = 0.00248375
GAMG:  Solving for p, Initial residual = 0.0149712, Final residual = 0.00137262, No Iterations 5
time step continuity errors : sum local = 3.53231e-06, global = 1.58747e-18, cumulative = -1.4713e-17
Pressure gradient source: uncorrected Ubar = 0.999998, pressure gradient = 0.00196327
smoothSolver:  Solving for omega, Initial residual = 0.000190608, Final residual = 1.25853e-05, No Iterations 5
smoothSolver:  Solving for k, Initial residual = 0.005255, Final residual = 0.0003832, No Iterations 5
ExecutionTime = 0.089131 s  ClockTime = 0 s

Time = 36s

smoothSolver:  Solving for Ux, Initial residual = 0.00632641, Final residual = 0.000460043, No Iterations 6
smoothSolver:  Solving for Uy, Initial residual = 0.146563, Final residual = 0.00889538, No Iterations 4
Pressure gradient source: uncorrected Ubar = 0.99998, pressure gradient = 0.00246615
GAMG:  Solving for p, Initial residual = 0.0137734, Final residual = 0.00115715, No Iterations 2
time step continuity errors : sum local = 2.84456e-06, global = -2.48414e-18, cumulative = -1.71972e-17
Pressure gradient source: uncorrected Ubar = 0.999999, pressure gradient = 0.0020013
smoothSolver:  Solving for omega, Initial residual = 0.000184712, Final residual = 1.67691e-05, No Iterations 4
smoothSolver:  Solving for k, Initial residual = 0.00502341, Final residual = 0.000434454, No Iterations 5
ExecutionTime = 0.091194 s  ClockTime = 0 s

Time = 37s

smoothSolver:  Solving for Ux, Initial residual = 0.00625894, Final residual = 0.000452688, No Iterations 6
smoothSolver:  Solving for Uy, Initial residual = 0.121665, Final residual = 0.00683301, No Iterations 4
Pressure gradient source: uncorrected Ubar = 0.999982, pressure gradient = 0.0024701
GAMG:  Solving for p, Initial residual = 0.0154707, Final residual = 0.000928725, No Iterations 3
time step continuity errors : sum local = 1.95137e-06, global = 9.70528e-19, cumulative = -1.62266e-17
Pressure gradient source: uncorrected Ubar = 0.999999, pressure gradient = 0.00203215
smoothSolver:  Solving for omega, Initial residual = 0.000185054, Final residual = 1.2457e-05, No Iterations 5
smoothSolver:  Solving for k, Initial residual = 0.00494938, Final residual = 0.000441333, No Iterations 5
ExecutionTime = 0.093201 s  ClockTime = 0 s

Time = 38s

smoothSolver:  Solving for Ux, Initial residual = 0.00619324, Final residual = 0.000445702, No Iterations 6
smoothSolver:  Solving for Uy, Initial residual = 0.0993411, Final residual = 0.00796876, No Iterations 3
Pressure gradient source: uncorrected Ubar = 0.999981, pressure gradient = 0.00252954
GAMG:  Solving for p, Initial residual = 0.0150093, Final residual = 0.000910279, No Iterations 3
time step continuity errors : sum local = 1.67447e-06, global = -1.4462e-18, cumulative = -1.76729e-17
Pressure gradient source: uncorrected Ubar = 0.999999, pressure gradient = 0.00206568
smoothSolver:  Solving for omega, Initial residual = 0.000179124, Final residual = 1.21031e-05, No Iterations 5
smoothSolver:  Solving for k, Initial residual = 0.00470079, Final residual = 0.000401221, No Iterations 5
ExecutionTime = 0.095193 s  ClockTime = 0 s

Time = 39s

smoothSolver:  Solving for Ux, Initial residual = 0.00613832, Final residual = 0.000440046, No Iterations 6
smoothSolver:  Solving for Uy, Initial residual = 0.0994273, Final residual = 0.00862162, No Iterations 3
Pressure gradient source: uncorrected Ubar = 0.999979, pressure gradient = 0.00263438
GAMG:  Solving for p, Initial residual = 0.016942, Final residual = 0.00123028, No Iterations 3
time step continuity errors : sum local = 1.96548e-06, global = 6.66523e-18, cumulative = -1.10076e-17
Pressure gradient source: uncorrected Ubar = 0.999998, pressure gradient = 0.0021088
smoothSolver:  Solving for omega, Initial residual = 0.000174165, Final residual = 1.16008e-05, No Iterations 5
smoothSolver:  Solving for k, Initial residual = 0.00462067, Final residual = 0.00041567, No Iterations 5
ExecutionTime = 0.097161 s  ClockTime = 0 s

Time = 40s

smoothSolver:  Solving for Ux, Initial residual = 0.00607825, Final residual = 0.000433772, No Iterations 6
smoothSolver:  Solving for Uy, Initial residual = 0.0897067, Final residual = 0.00724334, No Iterations 3
Pressure gradient source: uncorrected Ubar = 0.999984, pressure gradient = 0.00253847
GAMG:  Solving for p, Initial residual = 0.0192204, Final residual = 0.00175386, No Iterations 9
time step continuity errors : sum local = 2.58107e-06, global = 3.54584e-18, cumulative = -7.46178e-18
Pressure gradient source: uncorrected Ubar = 0.999999, pressure gradient = 0.00212884
smoothSolver:  Solving for omega, Initial residual = 0.000170936, Final residual = 1.0883e-05, No Iterations 5
smoothSolver:  Solving for k, Initial residual = 0.00463679, Final residual = 0.000375173, No Iterations 5
ExecutionTime = 0.099329 s  ClockTime = 0 s

Time = 41s

smoothSolver:  Solving for Ux, Initial residual = 0.00602261, Final residual = 0.000427967, No Iterations 6
smoothSolver:  Solving for Uy, Initial residual = 0.0679566, Final residual = 0.00449321, No Iterations 3
Pressure gradient source: uncorrected Ubar = 0.999983, pressure gradient = 0.00259514
GAMG:  Solving for p, Initial residual = 0.0183324, Final residual = 0.00178864, No Iterations 10
time step continuity errors : sum local = 2.42414e-06, global = -4.74796e-18, cumulative = -1.22097e-17
Pressure gradient source: uncorrected Ubar = 0.999999, pressure gradient = 0.00215334
smoothSolver:  Solving for omega, Initial residual = 0.00016705, Final residual = 1.03884e-05, No Iterations 5
smoothSolver:  Solving for k, Initial residual = 0.00463418, Final residual = 0.000363278, No Iterations 5
ExecutionTime = 0.101549 s  ClockTime = 0 s

Time = 42s

smoothSolver:  Solving for Ux, Initial residual = 0.0059762, Final residual = 0.000423356, No Iterations 6
smoothSolver:  Solving for Uy, Initial residual = 0.053678, Final residual = 0.00291999, No Iterations 3
Pressure gradient source: uncorrected Ubar = 0.99998, pressure gradient = 0.00269055
GAMG:  Solving for p, Initial residual = 0.0193279, Final residual = 0.00183493, No Iterations 12
time step continuity errors : sum local = 1.92574e-06, global = 2.54263e-18, cumulative = -9.66711e-18
Pressure gradient source: uncorrected Ubar = 0.999999, pressure gradient = 0.0021877
smoothSolver:  Solving for omega, Initial residual = 0.000164267, Final residual = 1.2246e-05, No Iterations 5
smoothSolver:  Solving for k, Initial residual = 0.00454282, Final residual = 0.000369815, No Iterations 5
ExecutionTime = 0.103784 s  ClockTime = 0 s

Time = 43s

smoothSolver:  Solving for Ux, Initial residual = 0.00593061, Final residual = 0.000418786, No Iterations 6
smoothSolver:  Solving for Uy, Initial residual = 0.0438514, Final residual = 0.00333827, No Iterations 2
Pressure gradient source: uncorrected Ubar = 0.999982, pressure gradient = 0.00269007
GAMG:  Solving for p, Initial residual = 0.0208489, Final residual = 0.00202155, No Iterations 14
time step continuity errors : sum local = 1.68243e-06, global = 1.02839e-17, cumulative = 6.16792e-19
Pressure gradient source: uncorrected Ubar = 0.999999, pressure gradient = 0.00221549
smoothSolver:  Solving for omega, Initial residual = 0.000160153, Final residual = 1.13643e-05, No Iterations 5
smoothSolver:  Solving for k, Initial residual = 0.00480081, Final residual = 0.000332442, No Iterations 6
ExecutionTime = 0.106153 s  ClockTime = 0 s

Time = 44s

smoothSolver:  Solving for Ux, Initial residual = 0.00587929, Final residual = 0.000413433, No Iterations 6
smoothSolver:  Solving for Uy, Initial residual = 0.0414798, Final residual = 0.00310132, No Iterations 2
Pressure gradient source: uncorrected Ubar = 0.999986, pressure gradient = 0.00260493
GAMG:  Solving for p, Initial residual = 0.0246726, Final residual = 0.00237428, No Iterations 10
time step continuity errors : sum local = 1.68678e-06, global = -4.33472e-18, cumulative = -3.71793e-18
Pressure gradient source: uncorrected Ubar = 1, pressure gradient = 0.00222441
smoothSolver:  Solving for omega, Initial residual = 0.000154641, Final residual = 9.726e-06, No Iterations 5
smoothSolver:  Solving for k, Initial residual = 0.00470606, Final residual = 0.000464746, No Iterations 5
ExecutionTime = 0.10828 s  ClockTime = 0 s

Time = 45s

smoothSolver:  Solving for Ux, Initial residual = 0.00583821, Final residual = 0.000409143, No Iterations 6
smoothSolver:  Solving for Uy, Initial residual = 0.042243, Final residual = 0.00235098, No Iterations 3
Pressure gradient source: uncorrected Ubar = 0.999983, pressure gradient = 0.00270067
GAMG:  Solving for p, Initial residual = 0.0279271, Final residual = 0.00249279, No Iterations 10
time step continuity errors : sum local = 1.58957e-06, global = 6.93326e-18, cumulative = 3.21533e-18
Pressure gradient source: uncorrected Ubar = 0.999999, pressure gradient = 0.00224635
smoothSolver:  Solving for omega, Initial residual = 0.000152149, Final residual = 1.03484e-05, No Iterations 5
smoothSolver:  Solving for k, Initial residual = 0.0045729, Final residual = 0.000357788, No Iterations 5
ExecutionTime = 0.110568 s  ClockTime = 0 s

Time = 46s

smoothSolver:  Solving for Ux, Initial residual = 0.00580647, Final residual = 0.000405937, No Iterations 6
smoothSolver:  Solving for Uy, Initial residual = 0.0392845, Final residual = 0.00257684, No Iterations 3
Pressure gradient source: uncorrected Ubar = 0.999981, pressure gradient = 0.00280104
GAMG:  Solving for p, Initial residual = 0.0235265, Final residual = 0.00233874, No Iterations 13
time step continuity errors : sum local = 1.35981e-06, global = 7.19797e-18, cumulative = 1.04133e-17
Pressure gradient source: uncorrected Ubar = 0.999999, pressure gradient = 0.0022799
smoothSolver:  Solving for omega, Initial residual = 0.000149808, Final residual = 1.09615e-05, No Iterations 5
smoothSolver:  Solving for k, Initial residual = 0.0048413, Final residual = 0.000315408, No Iterations 6
ExecutionTime = 0.112934 s  ClockTime = 0 s

Time = 47s

smoothSolver:  Solving for Ux, Initial residual = 0.00576759, Final residual = 0.000402149, No Iterations 6
smoothSolver:  Solving for Uy, Initial residual = 0.0439687, Final residual = 0.00425882, No Iterations 3
Pressure gradient source: uncorrected Ubar = 0.999983, pressure gradient = 0.00275689
GAMG:  Solving for p, Initial residual = 0.0272222, Final residual = 0.00260781, No Iterations 15
time step continuity errors : sum local = 1.36526e-06, global = -3.02414e-18, cumulative = 7.38915e-18
Pressure gradient source: uncorrected Ubar = 0.999999, pressure gradient = 0.00230034
smoothSolver:  Solving for omega, Initial residual = 0.000146395, Final residual = 9.99968e-06, No Iterations 5
smoothSolver:  Solving for k, Initial residual = 0.0048201, Final residual = 0.000436526, No Iterations 5
ExecutionTime = 0.115279 s  ClockTime = 0 s

Time = 48s

smoothSolver:  Solving for Ux, Initial residual = 0.00573135, Final residual = 0.000398545, No Iterations 6
smoothSolver:  Solving for Uy, Initial residual = 0.0413787, Final residual = 0.00390914, No Iterations 3
Pressure gradient source: uncorrected Ubar = 0.999984, pressure gradient = 0.00277237
GAMG:  Solving for p, Initial residual = 0.0246072, Final residual = 0.0024188, No Iterations 13
time step continuity errors : sum local = 1.42366e-06, global = 1.42309e-17, cumulative = 2.16201e-17
Pressure gradient source: uncorrected Ubar = 0.999999, pressure gradient = 0.00231933
smoothSolver:  Solving for omega, Initial residual = 0.000142325, Final residual = 9.35664e-06, No Iterations 5
smoothSolver:  Solving for k, Initial residual = 0.00484073, Final residual = 0.000450695, No Iterations 5
ExecutionTime = 0.117577 s  ClockTime = 0 s

Time = 49s

smoothSolver:  Solving for Ux, Initial residual = 0.00569985, Final residual = 0.000395386, No Iterations 6
smoothSolver:  Solving for Uy, Initial residual = 0.0580327, Final residual = 0.00349747, No Iterations 4
Pressure gradient source: uncorrected Ubar = 0.999984, pressure gradient = 0.00279873
GAMG:  Solving for p, Initial residual = 0.0309511, Final residual = 0.00299741, No Iterations 9
time step continuity errors : sum local = 1.78466e-06, global = -3.03619e-18, cumulative = 1.85839e-17
Pressure gradient source: uncorrected Ubar = 0.999999, pressure gradient = 0.00233905
smoothSolver:  Solving for omega, Initial residual = 0.000138512, Final residual = 9.54193e-06, No Iterations 5
smoothSolver:  Solving for k, Initial residual = 0.00480005, Final residual = 0.000404737, No Iterations 5
ExecutionTime = 0.119788 s  ClockTime = 0 s

Time = 50s

smoothSolver:  Solving for Ux, Initial residual = 0.00567408, Final residual = 0.000392998, No Iterations 6
smoothSolver:  Solving for Uy, Initial residual = 0.0538503, Final residual = 0.00309153, No Iterations 4
Pressure gradient source: uncorrected Ubar = 0.999982, pressure gradient = 0.00288099
GAMG:  Solving for p, Initial residual = 0.0258475, Final residual = 0.00211074, No Iterations 14
time step continuity errors : sum local = 1.01296e-06, global = -9.35217e-18, cumulative = 9.23172e-18
Pressure gradient source: uncorrected Ubar = 0.999999, pressure gradient = 0.00236832
smoothSolver:  Solving for omega, Initial residual = 0.000135794, Final residual = 9.74734e-06, No Iterations 5
smoothSolver:  Solving for k, Initial residual = 0.00503871, Final residual = 0.00044463, No Iterations 5
ExecutionTime = 0.122056 s  ClockTime = 0 s

Time = 51s

smoothSolver:  Solving for Ux, Initial residual = 0.00564887, Final residual = 0.000391003, No Iterations 6
smoothSolver:  Solving for Uy, Initial residual = 0.0345744, Final residual = 0.00238227, No Iterations 3
Pressure gradient source: uncorrected Ubar = 0.999981, pressure gradient = 0.0029287
GAMG:  Solving for p, Initial residual = 0.0218956, Final residual = 0.00190219, No Iterations 13
time step continuity errors : sum local = 9.28255e-07, global = 2.50042e-18, cumulative = 1.17321e-17
Pressure gradient source: uncorrected Ubar = 0.999999, pressure gradient = 0.00240002
smoothSolver:  Solving for omega, Initial residual = 0.000133664, Final residual = 9.39922e-06, No Iterations 5
smoothSolver:  Solving for k, Initial residual = 0.00509486, Final residual = 0.00046239, No Iterations 5
ExecutionTime = 0.124393 s  ClockTime = 0 s

Time = 52s

smoothSolver:  Solving for Ux, Initial residual = 0.00562597, Final residual = 0.000388835, No Iterations 6
smoothSolver:  Solving for Uy, Initial residual = 0.0456869, Final residual = 0.00283952, No Iterations 4
Pressure gradient source: uncorrected Ubar = 0.999984, pressure gradient = 0.00289246
GAMG:  Solving for p, Initial residual = 0.0228371, Final residual = 0.00189197, No Iterations 10
time step continuity errors : sum local = 9.53647e-07, global = 6.74016e-18, cumulative = 1.84723e-17
Pressure gradient source: uncorrected Ubar = 0.999999, pressure gradient = 0.00242058
smoothSolver:  Solving for omega, Initial residual = 0.000131164, Final residual = 8.405e-06, No Iterations 5
smoothSolver:  Solving for k, Initial residual = 0.00524257, Final residual = 0.000508395, No Iterations 5
ExecutionTime = 0.126658 s  ClockTime = 0 s

Time = 53s

smoothSolver:  Solving for Ux, Initial residual = 0.00559947, Final residual = 0.000386081, No Iterations 6
smoothSolver:  Solving for Uy, Initial residual = 0.0441251, Final residual = 0.00228591, No Iterations 4
Pressure gradient source: uncorrected Ubar = 0.999986, pressure gradient = 0.00284939
GAMG:  Solving for p, Initial residual = 0.0211737, Final residual = 0.00194722, No Iterations 13
time step continuity errors : sum local = 8.61012e-07, global = -2.92865e-18, cumulative = 1.55436e-17
Pressure gradient source: uncorrected Ubar = 1, pressure gradient = 0.00243051
smoothSolver:  Solving for omega, Initial residual = 0.000129002, Final residual = 9.98922e-06, No Iterations 5
smoothSolver:  Solving for k, Initial residual = 0.00552468, Final residual = 0.000383825, No Iterations 6
ExecutionTime = 0.128959 s  ClockTime = 0 s

Time = 54s

smoothSolver:  Solving for Ux, Initial residual = 0.0055741, Final residual = 0.000383473, No Iterations 6
smoothSolver:  Solving for Uy, Initial residual = 0.0378757, Final residual = 0.00313247, No Iterations 3
Pressure gradient source: uncorrected Ubar = 0.999985, pressure gradient = 0.00287949
GAMG:  Solving for p, Initial residual = 0.022498, Final residual = 0.00211766, No Iterations 9
time step continuity errors : sum local = 7.86901e-07, global = -1.29471e-17, cumulative = 2.59654e-18
Pressure gradient source: uncorrected Ubar = 1, pressure gradient = 0.00244326
smoothSolver:  Solving for omega, Initial residual = 0.000125796, Final residual = 9.35713e-06, No Iterations 5
smoothSolver:  Solving for k, Initial residual = 0.00542065, Final residual = 0.000476861, No Iterations 5
ExecutionTime = 0.131159 s  ClockTime = 0 s

Time = 55s

smoothSolver:  Solving for Ux, Initial residual = 0.00555253, Final residual = 0.00038138, No Iterations 6
smoothSolver:  Solving for Uy, Initial residual = 0.044668, Final residual = 0.00324824, No Iterations 4
Pressure gradient source: uncorrected Ubar = 0.999984, pressure gradient = 0.00292496
GAMG:  Solving for p, Initial residual = 0.0212031, Final residual = 0.00196557, No Iterations 6
time step continuity errors : sum local = 8.31974e-07, global = 2.56078e-18, cumulative = 5.15731e-18
Pressure gradient source: uncorrected Ubar = 0.999999, pressure gradient = 0.00246105
smoothSolver:  Solving for omega, Initial residual = 0.000122743, Final residual = 8.50702e-06, No Iterations 5
smoothSolver:  Solving for k, Initial residual = 0.00576187, Final residual = 0.000380413, No Iterations 6
ExecutionTime = 0.133256 s  ClockTime = 0 s

Time = 56s

smoothSolver:  Solving for Ux, Initial residual = 0.00552889, Final residual = 0.000379051, No Iterations 6
smoothSolver:  Solving for Uy, Initial residual = 0.0403096, Final residual = 0.00258931, No Iterations 4
Pressure gradient source: uncorrected Ubar = 0.999985, pressure gradient = 0.00291067
GAMG:  Solving for p, Initial residual = 0.0209616, Final residual = 0.0019991, No Iterations 5
time step continuity errors : sum local = 8.17792e-07, global = 6.47125e-18, cumulative = 1.16286e-17
Pressure gradient source: uncorrected Ubar = 1, pressure gradient = 0.00247347
smoothSolver:  Solving for omega, Initial residual = 0.000119492, Final residual = 7.38956e-06, No Iterations 5
smoothSolver:  Solving for k, Initial residual = 0.00575396, Final residual = 0.000523872, No Iterations 5
ExecutionTime = 0.135334 s  ClockTime = 0 s

Time = 57s

smoothSolver:  Solving for Ux, Initial residual = 0.00550831, Final residual = 0.000377076, No Iterations 6
smoothSolver:  Solving for Uy, Initial residual = 0.0755848, Final residual = 0.00554847, No Iterations 4
Pressure gradient source: uncorrected Ubar = 0.999985, pressure gradient = 0.00294423
GAMG:  Solving for p, Initial residual = 0.0299808, Final residual = 0.00261767, No Iterations 4
time step continuity errors : sum local = 1.06353e-06, global = 2.97213e-18, cumulative = 1.46007e-17
Pressure gradient source: uncorrected Ubar = 0.999999, pressure gradient = 0.00248915
smoothSolver:  Solving for omega, Initial residual = 0.000117961, Final residual = 7.30907e-06, No Iterations 5
smoothSolver:  Solving for k, Initial residual = 0.00587185, Final residual = 0.000530223, No Iterations 5
ExecutionTime = 0.137407 s  ClockTime = 0 s

Time = 58s

smoothSolver:  Solving for Ux, Initial residual = 0.00548515, Final residual = 0.00037492, No Iterations 6
smoothSolver:  Solving for Uy, Initial residual = 0.0367992, Final residual = 0.00361635, No Iterations 3
Pressure gradient source: uncorrected Ubar = 0.999986, pressure gradient = 0.00291849
GAMG:  Solving for p, Initial residual = 0.0214084, Final residual = 0.00178816, No Iterations 9
time step continuity errors : sum local = 8.16494e-07, global = -9.39646e-19, cumulative = 1.36611e-17
Pressure gradient source: uncorrected Ubar = 1, pressure gradient = 0.00249811
smoothSolver:  Solving for omega, Initial residual = 0.000116378, Final residual = 8.80341e-06, No Iterations 5
smoothSolver:  Solving for k, Initial residual = 0.0063771, Final residual = 0.000478657, No Iterations 6
ExecutionTime = 0.139643 s  ClockTime = 0 s

Time = 59s

smoothSolver:  Solving for Ux, Initial residual = 0.00546315, Final residual = 0.00037301, No Iterations 6
smoothSolver:  Solving for Uy, Initial residual = 0.0330101, Final residual = 0.0018892, No Iterations 4
Pressure gradient source: uncorrected Ubar = 0.999985, pressure gradient = 0.00297017
GAMG:  Solving for p, Initial residual = 0.0189333, Final residual = 0.00144032, No Iterations 6
time step continuity errors : sum local = 6.92253e-07, global = -5.15281e-19, cumulative = 1.31458e-17
Pressure gradient source: uncorrected Ubar = 0.999999, pressure gradient = 0.00251386
smoothSolver:  Solving for omega, Initial residual = 0.000113748, Final residual = 8.03135e-06, No Iterations 5
smoothSolver:  Solving for k, Initial residual = 0.00635517, Final residual = 0.000444494, No Iterations 6
ExecutionTime = 0.141742 s  ClockTime = 0 s

Time = 60s

smoothSolver:  Solving for Ux, Initial residual = 0.00543915, Final residual = 0.000370688, No Iterations 6
smoothSolver:  Solving for Uy, Initial residual = 0.041931, Final residual = 0.00414213, No Iterations 3
Pressure gradient source: uncorrected Ubar = 0.999987, pressure gradient = 0.00292162
GAMG:  Solving for p, Initial residual = 0.0195283, Final residual = 0.00177535, No Iterations 3
time step continuity errors : sum local = 7.45221e-07, global = 2.89929e-18, cumulative = 1.60451e-17
Pressure gradient source: uncorrected Ubar = 1, pressure gradient = 0.00251931
smoothSolver:  Solving for omega, Initial residual = 0.00011224, Final residual = 8.18385e-06, No Iterations 5
smoothSolver:  Solving for k, Initial residual = 0.00629782, Final residual = 0.000577669, No Iterations 5
ExecutionTime = 0.143826 s  ClockTime = 0 s

Time = 61s

smoothSolver:  Solving for Ux, Initial residual = 0.0054213, Final residual = 0.000368893, No Iterations 6
smoothSolver:  Solving for Uy, Initial residual = 0.0484341, Final residual = 0.00366819, No Iterations 4
Pressure gradient source: uncorrected Ubar = 0.999985, pressure gradient = 0.00298525
GAMG:  Solving for p, Initial residual = 0.0184383, Final residual = 0.00177158, No Iterations 9
time step continuity errors : sum local = 6.93501e-07, global = -1.25788e-17, cumulative = 3.46626e-18
Pressure gradient source: uncorrected Ubar = 1, pressure gradient = 0.00253396
smoothSolver:  Solving for omega, Initial residual = 0.000109642, Final residual = 7.61584e-06, No Iterations 5
smoothSolver:  Solving for k, Initial residual = 0.0064498, Final residual = 0.00056853, No Iterations 5
ExecutionTime = 0.14606 s  ClockTime = 0 s

Time = 62s

smoothSolver:  Solving for Ux, Initial residual = 0.00539973, Final residual = 0.000366758, No Iterations 6
smoothSolver:  Solving for Uy, Initial residual = 0.0334763, Final residual = 0.00211473, No Iterations 4
Pressure gradient source: uncorrected Ubar = 0.999987, pressure gradient = 0.00293634
GAMG:  Solving for p, Initial residual = 0.0185671, Final residual = 0.00168923, No Iterations 14
time step continuity errors : sum local = 8.81231e-07, global = -1.82756e-18, cumulative = 1.6387e-18
Pressure gradient source: uncorrected Ubar = 1, pressure gradient = 0.00253846
smoothSolver:  Solving for omega, Initial residual = 0.000106316, Final residual = 9.87528e-06, No Iterations 4
smoothSolver:  Solving for k, Initial residual = 0.00709058, Final residual = 0.000551837, No Iterations 6
ExecutionTime = 0.148399 s  ClockTime = 0 s

Time = 63s

smoothSolver:  Solving for Ux, Initial residual = 0.00537691, Final residual = 0.000364495, No Iterations 6
smoothSolver:  Solving for Uy, Initial residual = 0.044019, Final residual = 0.00234452, No Iterations 4
Pressure gradient source: uncorrected Ubar = 0.999987, pressure gradient = 0.00294913
GAMG:  Solving for p, Initial residual = 0.0217288, Final residual = 0.00185694, No Iterations 8
time step continuity errors : sum local = 7.4758e-07, global = -1.65108e-18, cumulative = -1.23891e-20
Pressure gradient source: uncorrected Ubar = 1, pressure gradient = 0.00254441
smoothSolver:  Solving for omega, Initial residual = 0.000105488, Final residual = 1.03127e-05, No Iterations 4
smoothSolver:  Solving for k, Initial residual = 0.00702645, Final residual = 0.000693491, No Iterations 5
ExecutionTime = 0.150532 s  ClockTime = 0 s

Time = 64s

smoothSolver:  Solving for Ux, Initial residual = 0.00535567, Final residual = 0.000362517, No Iterations 6
smoothSolver:  Solving for Uy, Initial residual = 0.0643701, Final residual = 0.0050596, No Iterations 4
Pressure gradient source: uncorrected Ubar = 0.999986, pressure gradient = 0.00297744
GAMG:  Solving for p, Initial residual = 0.0203586, Final residual = 0.00100709, No Iterations 4
time step continuity errors : sum local = 3.77066e-07, global = 1.9888e-18, cumulative = 1.97641e-18
Pressure gradient source: uncorrected Ubar = 1, pressure gradient = 0.00255418
smoothSolver:  Solving for omega, Initial residual = 0.000105911, Final residual = 7.97551e-06, No Iterations 5
smoothSolver:  Solving for k, Initial residual = 0.0071579, Final residual = 0.000467442, No Iterations 6
ExecutionTime = 0.152478 s  ClockTime = 0 s

Time = 65s

smoothSolver:  Solving for Ux, Initial residual = 0.00533031, Final residual = 0.000360326, No Iterations 6
smoothSolver:  Solving for Uy, Initial residual = 0.0557198, Final residual = 0.00416032, No Iterations 4
Pressure gradient source: uncorrected Ubar = 0.999987, pressure gradient = 0.00298587
GAMG:  Solving for p, Initial residual = 0.024881, Final residual = 0.00242431, No Iterations 7
time step continuity errors : sum local = 9.74242e-07, global = -1.77797e-18, cumulative = 1.98431e-19
Pressure gradient source: uncorrected Ubar = 1, pressure gradient = 0.00256375
smoothSolver:  Solving for omega, Initial residual = 0.000103012, Final residual = 7.41111e-06, No Iterations 5
smoothSolver:  Solving for k, Initial residual = 0.00719546, Final residual = 0.000635891, No Iterations 5
ExecutionTime = 0.154548 s  ClockTime = 0 s

Time = 66s

smoothSolver:  Solving for Ux, Initial residual = 0.00530889, Final residual = 0.000358028, No Iterations 6
smoothSolver:  Solving for Uy, Initial residual = 0.0496031, Final residual = 0.00435594, No Iterations 3
Pressure gradient source: uncorrected Ubar = 0.999987, pressure gradient = 0.00296851
GAMG:  Solving for p, Initial residual = 0.023123, Final residual = 0.00230613, No Iterations 8
time step continuity errors : sum local = 9.71926e-07, global = -9.35623e-18, cumulative = -9.1578e-18
Pressure gradient source: uncorrected Ubar = 1, pressure gradient = 0.00256918
smoothSolver:  Solving for omega, Initial residual = 0.000100657, Final residual = 7.02387e-06, No Iterations 5
smoothSolver:  Solving for k, Initial residual = 0.00784888, Final residual = 0.000607695, No Iterations 6
ExecutionTime = 0.156718 s  ClockTime = 0 s

Time = 67s

smoothSolver:  Solving for Ux, Initial residual = 0.00528648, Final residual = 0.000355578, No Iterations 6
smoothSolver:  Solving for Uy, Initial residual = 0.0431353, Final residual = 0.00253449, No Iterations 4
Pressure gradient source: uncorrected Ubar = 0.999987, pressure gradient = 0.00298764
GAMG:  Solving for p, Initial residual = 0.0228318, Final residual = 0.00188928, No Iterations 10
time step continuity errors : sum local = 7.55712e-07, global = -3.04726e-18, cumulative = -1.22051e-17
Pressure gradient source: uncorrected Ubar = 1, pressure gradient = 0.00257695
smoothSolver:  Solving for omega, Initial residual = 9.98048e-05, Final residual = 7.59981e-06, No Iterations 5
smoothSolver:  Solving for k, Initial residual = 0.00781804, Final residual = 0.000527626, No Iterations 6
ExecutionTime = 0.158964 s  ClockTime = 0 s

Time = 68s

smoothSolver:  Solving for Ux, Initial residual = 0.00525827, Final residual = 0.000352768, No Iterations 6
smoothSolver:  Solving for Uy, Initial residual = 0.0480419, Final residual = 0.00300841, No Iterations 4
Pressure gradient source: uncorrected Ubar = 0.999988, pressure gradient = 0.00295874
GAMG:  Solving for p, Initial residual = 0.0234447, Final residual = 0.00220526, No Iterations 4
time step continuity errors : sum local = 8.28035e-07, global = -1.17082e-18, cumulative = -1.33759e-17
Pressure gradient source: uncorrected Ubar = 1, pressure gradient = 0.0025789
smoothSolver:  Solving for omega, Initial residual = 9.69417e-05, Final residual = 6.48513e-06, No Iterations 5
smoothSolver:  Solving for k, Initial residual = 0.00775267, Final residual = 0.000720988, No Iterations 5
ExecutionTime = 0.161084 s  ClockTime = 0 s

Time = 69s

smoothSolver:  Solving for Ux, Initial residual = 0.00523697, Final residual = 0.000350556, No Iterations 6
smoothSolver:  Solving for Uy, Initial residual = 0.0410659, Final residual = 0.00269487, No Iterations 4
Pressure gradient source: uncorrected Ubar = 0.999987, pressure gradient = 0.00299001
GAMG:  Solving for p, Initial residual = 0.0197159, Final residual = 0.00177653, No Iterations 9
time step continuity errors : sum local = 6.99294e-07, global = -4.83891e-18, cumulative = -1.82148e-17
Pressure gradient source: uncorrected Ubar = 1, pressure gradient = 0.00258577
smoothSolver:  Solving for omega, Initial residual = 9.54862e-05, Final residual = 9.95066e-06, No Iterations 4
smoothSolver:  Solving for k, Initial residual = 0.00816093, Final residual = 0.000520769, No Iterations 6
ExecutionTime = 0.163305 s  ClockTime = 0 s

Time = 70s

smoothSolver:  Solving for Ux, Initial residual = 0.00521445, Final residual = 0.000348095, No Iterations 6
smoothSolver:  Solving for Uy, Initial residual = 0.0330837, Final residual = 0.0018871, No Iterations 4
Pressure gradient source: uncorrected Ubar = 0.999989, pressure gradient = 0.00294692
GAMG:  Solving for p, Initial residual = 0.0168746, Final residual = 0.00145076, No Iterations 18
time step continuity errors : sum local = 6.53143e-07, global = 8.14594e-19, cumulative = -1.74002e-17
Pressure gradient source: uncorrected Ubar = 1, pressure gradient = 0.00258493
smoothSolver:  Solving for omega, Initial residual = 9.5434e-05, Final residual = 7.79081e-06, No Iterations 5
smoothSolver:  Solving for k, Initial residual = 0.00848971, Final residual = 0.000605599, No Iterations 6
ExecutionTime = 0.165672 s  ClockTime = 0 s

Time = 71s

smoothSolver:  Solving for Ux, Initial residual = 0.00518605, Final residual = 0.000345377, No Iterations 6
smoothSolver:  Solving for Uy, Initial residual = 0.0464523, Final residual = 0.00417356, No Iterations 3
Pressure gradient source: uncorrected Ubar = 0.999987, pressure gradient = 0.00299461
GAMG:  Solving for p, Initial residual = 0.0240718, Final residual = 0.00233105, No Iterations 8
time step continuity errors : sum local = 8.90568e-07, global = 4.46454e-18, cumulative = -1.29357e-17
Pressure gradient source: uncorrected Ubar = 1, pressure gradient = 0.00259212
smoothSolver:  Solving for omega, Initial residual = 9.22563e-05, Final residual = 7.29859e-06, No Iterations 5
smoothSolver:  Solving for k, Initial residual = 0.00863235, Final residual = 0.000588013, No Iterations 6
ExecutionTime = 0.167753 s  ClockTime = 0 s

Time = 72s

smoothSolver:  Solving for Ux, Initial residual = 0.00515841, Final residual = 0.000342773, No Iterations 6
smoothSolver:  Solving for Uy, Initial residual = 0.0358111, Final residual = 0.00213733, No Iterations 4
Pressure gradient source: uncorrected Ubar = 0.999988, pressure gradient = 0.00298985
GAMG:  Solving for p, Initial residual = 0.0128789, Final residual = 0.00117418, No Iterations 14
time step continuity errors : sum local = 4.46201e-07, global = 7.07805e-18, cumulative = -5.85761e-18
Pressure gradient source: uncorrected Ubar = 1, pressure gradient = 0.00259773
smoothSolver:  Solving for omega, Initial residual = 9.19049e-05, Final residual = 7.86019e-06, No Iterations 5
smoothSolver:  Solving for k, Initial residual = 0.00883852, Final residual = 0.000619817, No Iterations 6
ExecutionTime = 0.170124 s  ClockTime = 0 s

Time = 73s

smoothSolver:  Solving for Ux, Initial residual = 0.00513038, Final residual = 0.000339657, No Iterations 6
smoothSolver:  Solving for Uy, Initial residual = 0.0545097, Final residual = 0.00360743, No Iterations 4
Pressure gradient source: uncorrected Ubar = 0.99999, pressure gradient = 0.00294216
GAMG:  Solving for p, Initial residual = 0.0252633, Final residual = 0.0022499, No Iterations 10
time step continuity errors : sum local = 6.22669e-07, global = 3.64086e-18, cumulative = -2.21674e-18
Pressure gradient source: uncorrected Ubar = 1, pressure gradient = 0.00259499
smoothSolver:  Solving for omega, Initial residual = 8.95915e-05, Final residual = 7.62504e-06, No Iterations 5
smoothSolver:  Solving for k, Initial residual = 0.0088631, Final residual = 0.000564464, No Iterations 6
ExecutionTime = 0.172258 s  ClockTime = 0 s

Time = 74s

smoothSolver:  Solving for Ux, Initial residual = 0.00510294, Final residual = 0.00033699, No Iterations 6
smoothSolver:  Solving for Uy, Initial residual = 0.0400823, Final residual = 0.00236803, No Iterations 4
Pressure gradient source: uncorrected Ubar = 0.999988, pressure gradient = 0.00298124
GAMG:  Solving for p, Initial residual = 0.0221621, Final residual = 0.00218352, No Iterations 9
time step continuity errors : sum local = 6.67989e-07, global = 6.59493e-18, cumulative = 4.37819e-18
Pressure gradient source: uncorrected Ubar = 1, pressure gradient = 0.00259928
smoothSolver:  Solving for omega, Initial residual = 8.5345e-05, Final residual = 8.09974e-06, No Iterations 4
smoothSolver:  Solving for k, Initial residual = 0.00949322, Final residual = 0.000726503, No Iterations 6
ExecutionTime = 0.174486 s  ClockTime = 0 s

Time = 75s

smoothSolver:  Solving for Ux, Initial residual = 0.00507181, Final residual = 0.000506039, No Iterations 5
smoothSolver:  Solving for Uy, Initial residual = 0.065195, Final residual = 0.00491479, No Iterations 4
Pressure gradient source: uncorrected Ubar = 0.999981, pressure gradient = 0.00323673
GAMG:  Solving for p, Initial residual = 0.0350971, Final residual = 0.00290265, No Iterations 4
time step continuity errors : sum local = 8.03803e-07, global = -3.17531e-18, cumulative = 1.20288e-18
Pressure gradient source: uncorrected Ubar = 0.999999, pressure gradient = 0.00262859
smoothSolver:  Solving for omega, Initial residual = 8.43284e-05, Final residual = 9.97195e-06, No Iterations 4
smoothSolver:  Solving for k, Initial residual = 0.00952246, Final residual = 0.000653257, No Iterations 6
ExecutionTime = 0.176593 s  ClockTime = 0 s

Time = 76s

smoothSolver:  Solving for Ux, Initial residual = 0.00503732, Final residual = 0.000501514, No Iterations 5
smoothSolver:  Solving for Uy, Initial residual = 0.0501685, Final residual = 0.00274398, No Iterations 4
Pressure gradient source: uncorrected Ubar = 0.999985, pressure gradient = 0.00311553
GAMG:  Solving for p, Initial residual = 0.0371899, Final residual = 0.00290969, No Iterations 10
time step continuity errors : sum local = 8.31112e-07, global = -1.85648e-17, cumulative = -1.73619e-17
Pressure gradient source: uncorrected Ubar = 1, pressure gradient = 0.00263331
smoothSolver:  Solving for omega, Initial residual = 8.38386e-05, Final residual = 9.48525e-06, No Iterations 4
smoothSolver:  Solving for k, Initial residual = 0.00986054, Final residual = 0.000701689, No Iterations 6
ExecutionTime = 0.178876 s  ClockTime = 0 s

Time = 77s

smoothSolver:  Solving for Ux, Initial residual = 0.00500408, Final residual = 0.000496965, No Iterations 5
smoothSolver:  Solving for Uy, Initial residual = 0.0757752, Final residual = 0.00543797, No Iterations 4
Pressure gradient source: uncorrected Ubar = 0.999984, pressure gradient = 0.00315796
GAMG:  Solving for p, Initial residual = 0.034041, Final residual = 0.00335659, No Iterations 7
time step continuity errors : sum local = 1.15863e-06, global = -3.08198e-18, cumulative = -2.04439e-17
Pressure gradient source: uncorrected Ubar = 1, pressure gradient = 0.00264485
smoothSolver:  Solving for omega, Initial residual = 8.10907e-05, Final residual = 8.75215e-06, No Iterations 4
smoothSolver:  Solving for k, Initial residual = 0.0100972, Final residual = 0.000732235, No Iterations 6
ExecutionTime = 0.180932 s  ClockTime = 0 s

Time = 78s

smoothSolver:  Solving for Ux, Initial residual = 0.00497433, Final residual = 0.000492987, No Iterations 5
smoothSolver:  Solving for Uy, Initial residual = 0.0512334, Final residual = 0.00389888, No Iterations 4
Pressure gradient source: uncorrected Ubar = 0.999984, pressure gradient = 0.00316105
GAMG:  Solving for p, Initial residual = 0.0301295, Final residual = 0.00292112, No Iterations 11
time step continuity errors : sum local = 1.00222e-06, global = -3.01245e-18, cumulative = -2.34563e-17
Pressure gradient source: uncorrected Ubar = 1, pressure gradient = 0.00265576
smoothSolver:  Solving for omega, Initial residual = 8.16214e-05, Final residual = 9.89943e-06, No Iterations 4
smoothSolver:  Solving for k, Initial residual = 0.0101284, Final residual = 0.000653053, No Iterations 6
ExecutionTime = 0.183076 s  ClockTime = 0 s

Time = 79s

smoothSolver:  Solving for Ux, Initial residual = 0.00494094, Final residual = 0.000488185, No Iterations 5
smoothSolver:  Solving for Uy, Initial residual = 0.0526701, Final residual = 0.00395544, No Iterations 4
Pressure gradient source: uncorrected Ubar = 0.999985, pressure gradient = 0.00314483
GAMG:  Solving for p, Initial residual = 0.0205017, Final residual = 0.00174085, No Iterations 13
time step continuity errors : sum local = 6.84156e-07, global = 2.15491e-19, cumulative = -2.32408e-17
Pressure gradient source: uncorrected Ubar = 1, pressure gradient = 0.00266276
smoothSolver:  Solving for omega, Initial residual = 7.90085e-05, Final residual = 8.11845e-06, No Iterations 4
smoothSolver:  Solving for k, Initial residual = 0.0107545, Final residual = 0.000810569, No Iterations 6
ExecutionTime = 0.185293 s  ClockTime = 0 s

Time = 80s

smoothSolver:  Solving for Ux, Initial residual = 0.0049004, Final residual = 0.000482389, No Iterations 5
smoothSolver:  Solving for Uy, Initial residual = 0.0591644, Final residual = 0.00375627, No Iterations 4
Pressure gradient source: uncorrected Ubar = 0.999986, pressure gradient = 0.00313393
GAMG:  Solving for p, Initial residual = 0.0265604, Final residual = 0.00254059, No Iterations 4
time step continuity errors : sum local = 1.07885e-06, global = -3.239e-18, cumulative = -2.64798e-17
Pressure gradient source: uncorrected Ubar = 1, pressure gradient = 0.00266738
smoothSolver:  Solving for omega, Initial residual = 7.80274e-05, Final residual = 8.46387e-06, No Iterations 4
smoothSolver:  Solving for k, Initial residual = 0.0110099, Final residual = 0.00081455, No Iterations 6
ExecutionTime = 0.187254 s  ClockTime = 0 s

Time = 81s

smoothSolver:  Solving for Ux, Initial residual = 0.00485753, Final residual = 0.000477248, No Iterations 5
smoothSolver:  Solving for Uy, Initial residual = 0.0295571, Final residual = 0.00208278, No Iterations 4
Pressure gradient source: uncorrected Ubar = 0.999985, pressure gradient = 0.00315342
GAMG:  Solving for p, Initial residual = 0.0119828, Final residual = 0.00114372, No Iterations 9
time step continuity errors : sum local = 5.32994e-07, global = 7.49475e-18, cumulative = -1.89851e-17
Pressure gradient source: uncorrected Ubar = 1, pressure gradient = 0.0026753
smoothSolver:  Solving for omega, Initial residual = 7.82227e-05, Final residual = 6.59195e-06, No Iterations 5
smoothSolver:  Solving for k, Initial residual = 0.0107329, Final residual = 0.00103707, No Iterations 5
ExecutionTime = 0.189421 s  ClockTime = 0 s

Time = 82s

smoothSolver:  Solving for Ux, Initial residual = 0.00480555, Final residual = 0.000471588, No Iterations 5
smoothSolver:  Solving for Uy, Initial residual = 0.0415721, Final residual = 0.00347896, No Iterations 4
Pressure gradient source: uncorrected Ubar = 0.999987, pressure gradient = 0.00312683
GAMG:  Solving for p, Initial residual = 0.015712, Final residual = 0.00121312, No Iterations 4
time step continuity errors : sum local = 5.08159e-07, global = -1.42074e-18, cumulative = -2.04058e-17
Pressure gradient source: uncorrected Ubar = 1, pressure gradient = 0.00267811
smoothSolver:  Solving for omega, Initial residual = 7.59239e-05, Final residual = 9.45454e-06, No Iterations 4
smoothSolver:  Solving for k, Initial residual = 0.0109433, Final residual = 0.0007051, No Iterations 6
ExecutionTime = 0.191426 s  ClockTime = 0 s

Time = 83s

smoothSolver:  Solving for Ux, Initial residual = 0.00475192, Final residual = 0.000464973, No Iterations 5
smoothSolver:  Solving for Uy, Initial residual = 0.0298569, Final residual = 0.00175991, No Iterations 4
Pressure gradient source: uncorrected Ubar = 0.999986, pressure gradient = 0.00313401
GAMG:  Solving for p, Initial residual = 0.0168953, Final residual = 0.00090152, No Iterations 4
time step continuity errors : sum local = 3.9063e-07, global = -6.66554e-18, cumulative = -2.70713e-17
Pressure gradient source: uncorrected Ubar = 1, pressure gradient = 0.00268229
smoothSolver:  Solving for omega, Initial residual = 7.36827e-05, Final residual = 8.13156e-06, No Iterations 4
smoothSolver:  Solving for k, Initial residual = 0.0116805, Final residual = 0.00088072, No Iterations 6
ExecutionTime = 0.193521 s  ClockTime = 0 s

Time = 84s

smoothSolver:  Solving for Ux, Initial residual = 0.00464118, Final residual = 0.000456297, No Iterations 5
smoothSolver:  Solving for Uy, Initial residual = 0.0499444, Final residual = 0.00404879, No Iterations 4
Pressure gradient source: uncorrected Ubar = 0.999987, pressure gradient = 0.00312919
GAMG:  Solving for p, Initial residual = 0.0152951, Final residual = 0.00133092, No Iterations 3
time step continuity errors : sum local = 6.142e-07, global = -3.19305e-18, cumulative = -3.02644e-17
Pressure gradient source: uncorrected Ubar = 1, pressure gradient = 0.00268571
smoothSolver:  Solving for omega, Initial residual = 7.29998e-05, Final residual = 8.04758e-06, No Iterations 4
smoothSolver:  Solving for k, Initial residual = 0.0116062, Final residual = 0.00112451, No Iterations 5
ExecutionTime = 0.195556 s  ClockTime = 0 s

Time = 85s

smoothSolver:  Solving for Ux, Initial residual = 0.00456091, Final residual = 0.000448186, No Iterations 5
smoothSolver:  Solving for Uy, Initial residual = 0.0467995, Final residual = 0.00371856, No Iterations 4
Pressure gradient source: uncorrected Ubar = 0.999988, pressure gradient = 0.00308672
GAMG:  Solving for p, Initial residual = 0.0115869, Final residual = 0.000835723, No Iterations 3
time step continuity errors : sum local = 3.67019e-07, global = -6.44356e-18, cumulative = -3.6708e-17
Pressure gradient source: uncorrected Ubar = 1, pressure gradient = 0.00268221
smoothSolver:  Solving for omega, Initial residual = 7.29367e-05, Final residual = 9.58057e-06, No Iterations 4
smoothSolver:  Solving for k, Initial residual = 0.0121274, Final residual = 0.00090884, No Iterations 6
ExecutionTime = 0.197574 s  ClockTime = 0 s

Time = 86s

smoothSolver:  Solving for Ux, Initial residual = 0.00449012, Final residual = 0.00044027, No Iterations 5
smoothSolver:  Solving for Uy, Initial residual = 0.0345199, Final residual = 0.00221652, No Iterations 4
Pressure gradient source: uncorrected Ubar = 0.999987, pressure gradient = 0.00311429
GAMG:  Solving for p, Initial residual = 0.0134451, Final residual = 0.00119855, No Iterations 6
time step continuity errors : sum local = 5.82866e-07, global = 8.56279e-18, cumulative = -2.81452e-17
Pressure gradient source: uncorrected Ubar = 1, pressure gradient = 0.00268455
smoothSolver:  Solving for omega, Initial residual = 7.1022e-05, Final residual = 9.26971e-06, No Iterations 4
smoothSolver:  Solving for k, Initial residual = 0.0121588, Final residual = 0.000786049, No Iterations 6
ExecutionTime = 0.199576 s  ClockTime = 0 s

Time = 87s

smoothSolver:  Solving for Ux, Initial residual = 0.00442604, Final residual = 0.000433376, No Iterations 5
smoothSolver:  Solving for Uy, Initial residual = 0.0337646, Final residual = 0.00188981, No Iterations 4
Pressure gradient source: uncorrected Ubar = 0.999987, pressure gradient = 0.00311472
GAMG:  Solving for p, Initial residual = 0.0127051, Final residual = 0.00104439, No Iterations 9
time step continuity errors : sum local = 5.6972e-07, global = 8.07753e-18, cumulative = -2.00676e-17
Pressure gradient source: uncorrected Ubar = 1, pressure gradient = 0.00268739
smoothSolver:  Solving for omega, Initial residual = 6.98361e-05, Final residual = 8.23292e-06, No Iterations 4
smoothSolver:  Solving for k, Initial residual = 0.0125236, Final residual = 0.000824753, No Iterations 6
ExecutionTime = 0.201686 s  ClockTime = 0 s

Time = 88s

smoothSolver:  Solving for Ux, Initial residual = 0.00435314, Final residual = 0.000425049, No Iterations 5
smoothSolver:  Solving for Uy, Initial residual = 0.0538174, Final residual = 0.00408147, No Iterations 4
Pressure gradient source: uncorrected Ubar = 0.999988, pressure gradient = 0.00307583
GAMG:  Solving for p, Initial residual = 0.0183527, Final residual = 0.00177658, No Iterations 10
time step continuity errors : sum local = 8.08081e-07, global = 3.84545e-18, cumulative = -1.62222e-17
Pressure gradient source: uncorrected Ubar = 1, pressure gradient = 0.00268409
smoothSolver:  Solving for omega, Initial residual = 6.8542e-05, Final residual = 8.36208e-06, No Iterations 4
smoothSolver:  Solving for k, Initial residual = 0.0130203, Final residual = 0.00101063, No Iterations 6
ExecutionTime = 0.203789 s  ClockTime = 0 s

Time = 89s

smoothSolver:  Solving for Ux, Initial residual = 0.00428749, Final residual = 0.000417298, No Iterations 5
smoothSolver:  Solving for Uy, Initial residual = 0.0592306, Final residual = 0.00525579, No Iterations 4
Pressure gradient source: uncorrected Ubar = 0.999988, pressure gradient = 0.00309573
[...]
Pressure gradient source: uncorrected Ubar = 1, pressure gradient = 0.00302679
smoothSolver:  Solving for omega, Initial residual = 8.43259e-06, Final residual = 8.43259e-06, No Iterations 0
smoothSolver:  Solving for k, Initial residual = 2.88179e-05, Final residual = 9.84818e-06, No Iterations 2
ExecutionTime = 1.22181 s  ClockTime = 1 s

Time = 570s

smoothSolver:  Solving for Ux, Initial residual = 1.10492e-05, Final residual = 6.80303e-06, No Iterations 1
smoothSolver:  Solving for Uy, Initial residual = 0.0166283, Final residual = 0.000826424, No Iterations 3
Pressure gradient source: uncorrected Ubar = 1, pressure gradient = 0.00302663
GAMG:  Solving for p, Initial residual = 0.00332709, Final residual = 0.000279105, No Iterations 7
time step continuity errors : sum local = 3.76007e-09, global = 2.42033e-18, cumulative = -7.6084e-17
Pressure gradient source: uncorrected Ubar = 1, pressure gradient = 0.00302675
smoothSolver:  Solving for omega, Initial residual = 8.46238e-06, Final residual = 8.46238e-06, No Iterations 0
smoothSolver:  Solving for k, Initial residual = 2.78982e-05, Final residual = 9.42118e-06, No Iterations 2
ExecutionTime = 1.2238 s  ClockTime = 1 s

Time = 571s

smoothSolver:  Solving for Ux, Initial residual = 1.10331e-05, Final residual = 6.79296e-06, No Iterations 1
smoothSolver:  Solving for Uy, Initial residual = 0.016726, Final residual = 0.000853451, No Iterations 3
Pressure gradient source: uncorrected Ubar = 1, pressure gradient = 0.00302659
GAMG:  Solving for p, Initial residual = 0.00334022, Final residual = 0.000303084, No Iterations 7
time step continuity errors : sum local = 3.9704e-09, global = 2.92275e-18, cumulative = -7.31613e-17
Pressure gradient source: uncorrected Ubar = 1, pressure gradient = 0.0030267
smoothSolver:  Solving for omega, Initial residual = 8.49181e-06, Final residual = 8.49181e-06, No Iterations 0
smoothSolver:  Solving for k, Initial residual = 2.91946e-05, Final residual = 7.08198e-06, No Iterations 3
ExecutionTime = 1.22601 s  ClockTime = 1 s

Time = 572s

smoothSolver:  Solving for Ux, Initial residual = 1.10251e-05, Final residual = 6.78788e-06, No Iterations 1
smoothSolver:  Solving for Uy, Initial residual = 0.0180169, Final residual = 0.000873367, No Iterations 3
Pressure gradient source: uncorrected Ubar = 1, pressure gradient = 0.00302655
GAMG:  Solving for p, Initial residual = 0.00380829, Final residual = 0.0002828, No Iterations 7
time step continuity errors : sum local = 3.78395e-09, global = 1.00115e-17, cumulative = -6.31498e-17
Pressure gradient source: uncorrected Ubar = 1, pressure gradient = 0.00302667
smoothSolver:  Solving for omega, Initial residual = 8.5215e-06, Final residual = 8.5215e-06, No Iterations 0
smoothSolver:  Solving for k, Initial residual = 2.78646e-05, Final residual = 6.32633e-06, No Iterations 3
ExecutionTime = 1.22812 s  ClockTime = 1 s

Time = 573s

smoothSolver:  Solving for Ux, Initial residual = 1.10133e-05, Final residual = 6.78161e-06, No Iterations 1
smoothSolver:  Solving for Uy, Initial residual = 0.0185359, Final residual = 0.000938273, No Iterations 3
Pressure gradient source: uncorrected Ubar = 1, pressure gradient = 0.00302652
GAMG:  Solving for p, Initial residual = 0.00384106, Final residual = 0.00034954, No Iterations 5
time step continuity errors : sum local = 4.39174e-09, global = 1.93679e-18, cumulative = -6.12131e-17
Pressure gradient source: uncorrected Ubar = 1, pressure gradient = 0.00302663
smoothSolver:  Solving for omega, Initial residual = 8.55117e-06, Final residual = 8.55117e-06, No Iterations 0
smoothSolver:  Solving for k, Initial residual = 2.59114e-05, Final residual = 8.7477e-06, No Iterations 2
ExecutionTime = 1.23009 s  ClockTime = 1 s

Time = 574s

smoothSolver:  Solving for Ux, Initial residual = 1.0995e-05, Final residual = 6.76842e-06, No Iterations 1
smoothSolver:  Solving for Uy, Initial residual = 0.0175216, Final residual = 0.000796799, No Iterations 3
Pressure gradient source: uncorrected Ubar = 1, pressure gradient = 0.00302648
GAMG:  Solving for p, Initial residual = 0.00363074, Final residual = 0.000330587, No Iterations 7
time step continuity errors : sum local = 4.24631e-09, global = -5.67773e-18, cumulative = -6.68908e-17
Pressure gradient source: uncorrected Ubar = 1, pressure gradient = 0.00302659
smoothSolver:  Solving for omega, Initial residual = 8.58045e-06, Final residual = 8.58045e-06, No Iterations 0
smoothSolver:  Solving for k, Initial residual = 2.69639e-05, Final residual = 6.32223e-06, No Iterations 3
ExecutionTime = 1.23207 s  ClockTime = 1 s

Time = 575s

smoothSolver:  Solving for Ux, Initial residual = 1.09828e-05, Final residual = 6.75866e-06, No Iterations 1
smoothSolver:  Solving for Uy, Initial residual = 0.0174964, Final residual = 0.000818731, No Iterations 3
Pressure gradient source: uncorrected Ubar = 1, pressure gradient = 0.00302645
GAMG:  Solving for p, Initial residual = 0.00347478, Final residual = 0.000299812, No Iterations 7
time step continuity errors : sum local = 3.88436e-09, global = -1.56537e-18, cumulative = -6.84562e-17
Pressure gradient source: uncorrected Ubar = 1, pressure gradient = 0.00302656
smoothSolver:  Solving for omega, Initial residual = 8.60993e-06, Final residual = 8.60993e-06, No Iterations 0
smoothSolver:  Solving for k, Initial residual = 2.58579e-05, Final residual = 9.36115e-06, No Iterations 2
ExecutionTime = 1.23403 s  ClockTime = 1 s

Time = 576s

smoothSolver:  Solving for Ux, Initial residual = 1.09578e-05, Final residual = 6.74158e-06, No Iterations 1
smoothSolver:  Solving for Uy, Initial residual = 0.0165796, Final residual = 0.00077011, No Iterations 3
Pressure gradient source: uncorrected Ubar = 1, pressure gradient = 0.00302642
GAMG:  Solving for p, Initial residual = 0.00324531, Final residual = 0.000311658, No Iterations 5
time step continuity errors : sum local = 3.91883e-09, global = -4.35389e-18, cumulative = -7.281e-17
Pressure gradient source: uncorrected Ubar = 1, pressure gradient = 0.00302652
smoothSolver:  Solving for omega, Initial residual = 8.63893e-06, Final residual = 8.63893e-06, No Iterations 0
smoothSolver:  Solving for k, Initial residual = 2.50014e-05, Final residual = 8.94695e-06, No Iterations 2
ExecutionTime = 1.23593 s  ClockTime = 1 s

Time = 577s

smoothSolver:  Solving for Ux, Initial residual = 1.09302e-05, Final residual = 6.7242e-06, No Iterations 1
smoothSolver:  Solving for Uy, Initial residual = 0.0157197, Final residual = 0.000707567, No Iterations 3
Pressure gradient source: uncorrected Ubar = 1, pressure gradient = 0.00302638
GAMG:  Solving for p, Initial residual = 0.00320098, Final residual = 0.000263246, No Iterations 7
time step continuity errors : sum local = 3.56713e-09, global = -2.37846e-18, cumulative = -7.51885e-17
Pressure gradient source: uncorrected Ubar = 1, pressure gradient = 0.00302649
smoothSolver:  Solving for omega, Initial residual = 8.66774e-06, Final residual = 8.66774e-06, No Iterations 0
smoothSolver:  Solving for k, Initial residual = 2.40592e-05, Final residual = 8.1883e-06, No Iterations 2
ExecutionTime = 1.23789 s  ClockTime = 1 s

Time = 578s

smoothSolver:  Solving for Ux, Initial residual = 1.08993e-05, Final residual = 6.70482e-06, No Iterations 1
smoothSolver:  Solving for Uy, Initial residual = 0.0157143, Final residual = 0.000730698, No Iterations 3
Pressure gradient source: uncorrected Ubar = 1, pressure gradient = 0.00302635
GAMG:  Solving for p, Initial residual = 0.00315271, Final residual = 0.000238004, No Iterations 7
time step continuity errors : sum local = 3.28312e-09, global = 1.30781e-17, cumulative = -6.21104e-17
Pressure gradient source: uncorrected Ubar = 1, pressure gradient = 0.00302646
smoothSolver:  Solving for omega, Initial residual = 8.69637e-06, Final residual = 8.69637e-06, No Iterations 0
smoothSolver:  Solving for k, Initial residual = 2.39167e-05, Final residual = 8.31455e-06, No Iterations 2
ExecutionTime = 1.23995 s  ClockTime = 1 s

Time = 579s

smoothSolver:  Solving for Ux, Initial residual = 1.08654e-05, Final residual = 6.68405e-06, No Iterations 1
smoothSolver:  Solving for Uy, Initial residual = 0.0148214, Final residual = 0.000728161, No Iterations 3
Pressure gradient source: uncorrected Ubar = 1, pressure gradient = 0.00302632
GAMG:  Solving for p, Initial residual = 0.00309985, Final residual = 0.000267947, No Iterations 7
time step continuity errors : sum local = 3.43906e-09, global = 6.0498e-19, cumulative = -6.15054e-17
Pressure gradient source: uncorrected Ubar = 1, pressure gradient = 0.00302643
smoothSolver:  Solving for omega, Initial residual = 8.72484e-06, Final residual = 8.72484e-06, No Iterations 0
smoothSolver:  Solving for k, Initial residual = 2.31544e-05, Final residual = 7.86234e-06, No Iterations 2
ExecutionTime = 1.24211 s  ClockTime = 1 s

Time = 580s

smoothSolver:  Solving for Ux, Initial residual = 1.08304e-05, Final residual = 6.66221e-06, No Iterations 1
smoothSolver:  Solving for Uy, Initial residual = 0.0155153, Final residual = 0.00074205, No Iterations 3
Pressure gradient source: uncorrected Ubar = 1, pressure gradient = 0.0030263
GAMG:  Solving for p, Initial residual = 0.0032036, Final residual = 0.000272907, No Iterations 5
time step continuity errors : sum local = 3.47266e-09, global = 1.75845e-17, cumulative = -4.39209e-17
Pressure gradient source: uncorrected Ubar = 1, pressure gradient = 0.0030264
smoothSolver:  Solving for omega, Initial residual = 8.75327e-06, Final residual = 8.75327e-06, No Iterations 0
smoothSolver:  Solving for k, Initial residual = 2.28515e-05, Final residual = 7.92569e-06, No Iterations 2
ExecutionTime = 1.24416 s  ClockTime = 1 s

Time = 581s

smoothSolver:  Solving for Ux, Initial residual = 1.07932e-05, Final residual = 6.6387e-06, No Iterations 1
smoothSolver:  Solving for Uy, Initial residual = 0.0153578, Final residual = 0.000813082, No Iterations 3
Pressure gradient source: uncorrected Ubar = 1, pressure gradient = 0.00302627
GAMG:  Solving for p, Initial residual = 0.00320873, Final residual = 0.000290894, No Iterations 7
time step continuity errors : sum local = 3.71761e-09, global = 4.34724e-18, cumulative = -3.95737e-17
Pressure gradient source: uncorrected Ubar = 1, pressure gradient = 0.00302637
smoothSolver:  Solving for omega, Initial residual = 8.78158e-06, Final residual = 8.78158e-06, No Iterations 0
smoothSolver:  Solving for k, Initial residual = 2.17331e-05, Final residual = 7.06338e-06, No Iterations 2
ExecutionTime = 1.24621 s  ClockTime = 1 s

Time = 582s

smoothSolver:  Solving for Ux, Initial residual = 1.07536e-05, Final residual = 6.61384e-06, No Iterations 1
smoothSolver:  Solving for Uy, Initial residual = 0.0148434, Final residual = 0.000723405, No Iterations 3
Pressure gradient source: uncorrected Ubar = 1, pressure gradient = 0.00302624
GAMG:  Solving for p, Initial residual = 0.00309808, Final residual = 0.000276071, No Iterations 7
time step continuity errors : sum local = 3.59995e-09, global = -5.54862e-18, cumulative = -4.51223e-17
Pressure gradient source: uncorrected Ubar = 1, pressure gradient = 0.00302634
smoothSolver:  Solving for omega, Initial residual = 8.80988e-06, Final residual = 8.80988e-06, No Iterations 0
smoothSolver:  Solving for k, Initial residual = 2.26363e-05, Final residual = 8.4175e-06, No Iterations 2
ExecutionTime = 1.2482 s  ClockTime = 1 s

Time = 583s

smoothSolver:  Solving for Ux, Initial residual = 1.07122e-05, Final residual = 6.58684e-06, No Iterations 1
smoothSolver:  Solving for Uy, Initial residual = 0.014912, Final residual = 0.000789041, No Iterations 3
Pressure gradient source: uncorrected Ubar = 1, pressure gradient = 0.00302622
GAMG:  Solving for p, Initial residual = 0.0031976, Final residual = 0.000308907, No Iterations 7
time step continuity errors : sum local = 3.83965e-09, global = 8.66639e-18, cumulative = -3.64559e-17
Pressure gradient source: uncorrected Ubar = 1, pressure gradient = 0.00302632
smoothSolver:  Solving for omega, Initial residual = 8.83803e-06, Final residual = 8.83803e-06, No Iterations 0
smoothSolver:  Solving for k, Initial residual = 2.21165e-05, Final residual = 8.14877e-06, No Iterations 2
ExecutionTime = 1.25017 s  ClockTime = 1 s

Time = 584s

smoothSolver:  Solving for Ux, Initial residual = 1.0669e-05, Final residual = 6.55849e-06, No Iterations 1
smoothSolver:  Solving for Uy, Initial residual = 0.0143196, Final residual = 0.000677409, No Iterations 3
Pressure gradient source: uncorrected Ubar = 1, pressure gradient = 0.0030262
GAMG:  Solving for p, Initial residual = 0.00312621, Final residual = 0.000255257, No Iterations 9
time step continuity errors : sum local = 3.11883e-09, global = 6.23994e-18, cumulative = -3.02159e-17
Pressure gradient source: uncorrected Ubar = 1, pressure gradient = 0.00302629
smoothSolver:  Solving for omega, Initial residual = 8.86613e-06, Final residual = 8.86613e-06, No Iterations 0
smoothSolver:  Solving for k, Initial residual = 2.06006e-05, Final residual = 6.92234e-06, No Iterations 2
ExecutionTime = 1.25221 s  ClockTime = 1 s

Time = 585s

smoothSolver:  Solving for Ux, Initial residual = 1.06232e-05, Final residual = 6.52967e-06, No Iterations 1
smoothSolver:  Solving for Uy, Initial residual = 0.0153072, Final residual = 0.000837269, No Iterations 3
Pressure gradient source: uncorrected Ubar = 1, pressure gradient = 0.00302617
GAMG:  Solving for p, Initial residual = 0.0033117, Final residual = 0.000286255, No Iterations 7
time step continuity errors : sum local = 3.62883e-09, global = -9.50976e-18, cumulative = -3.97257e-17
Pressure gradient source: uncorrected Ubar = 1, pressure gradient = 0.00302627
smoothSolver:  Solving for omega, Initial residual = 8.89415e-06, Final residual = 8.89415e-06, No Iterations 0
smoothSolver:  Solving for k, Initial residual = 2.03031e-05, Final residual = 6.87279e-06, No Iterations 2
ExecutionTime = 1.25417 s  ClockTime = 1 s

Time = 586s

smoothSolver:  Solving for Ux, Initial residual = 1.05746e-05, Final residual = 6.49916e-06, No Iterations 1
smoothSolver:  Solving for Uy, Initial residual = 0.014176, Final residual = 0.00140055, No Iterations 2
Pressure gradient source: uncorrected Ubar = 1, pressure gradient = 0.00302615
GAMG:  Solving for p, Initial residual = 0.00322734, Final residual = 0.000284354, No Iterations 7
time step continuity errors : sum local = 3.38196e-09, global = 1.16953e-17, cumulative = -2.80304e-17
Pressure gradient source: uncorrected Ubar = 1, pressure gradient = 0.00302624
smoothSolver:  Solving for omega, Initial residual = 8.92204e-06, Final residual = 8.92204e-06, No Iterations 0
smoothSolver:  Solving for k, Initial residual = 2.06747e-05, Final residual = 7.61593e-06, No Iterations 2
ExecutionTime = 1.25622 s  ClockTime = 1 s

Time = 587s

smoothSolver:  Solving for Ux, Initial residual = 1.05237e-05, Final residual = 6.46716e-06, No Iterations 1
smoothSolver:  Solving for Uy, Initial residual = 0.0143999, Final residual = 0.000708779, No Iterations 3
Pressure gradient source: uncorrected Ubar = 1, pressure gradient = 0.00302613
GAMG:  Solving for p, Initial residual = 0.00321489, Final residual = 0.000288129, No Iterations 7
time step continuity errors : sum local = 3.39738e-09, global = 5.60968e-18, cumulative = -2.24207e-17
Pressure gradient source: uncorrected Ubar = 1, pressure gradient = 0.00302622
smoothSolver:  Solving for omega, Initial residual = 8.9498e-06, Final residual = 8.9498e-06, No Iterations 0
smoothSolver:  Solving for k, Initial residual = 2.05002e-05, Final residual = 7.78852e-06, No Iterations 2
ExecutionTime = 1.25843 s  ClockTime = 1 s

Time = 588s

smoothSolver:  Solving for Ux, Initial residual = 1.04719e-05, Final residual = 6.43459e-06, No Iterations 1
smoothSolver:  Solving for Uy, Initial residual = 0.0125085, Final residual = 0.00113782, No Iterations 2
Pressure gradient source: uncorrected Ubar = 1, pressure gradient = 0.0030261
GAMG:  Solving for p, Initial residual = 0.0029988, Final residual = 0.000269174, No Iterations 7
time step continuity errors : sum local = 3.14747e-09, global = 1.32082e-18, cumulative = -2.10999e-17
Pressure gradient source: uncorrected Ubar = 1, pressure gradient = 0.0030262
smoothSolver:  Solving for omega, Initial residual = 8.97761e-06, Final residual = 8.97761e-06, No Iterations 0
smoothSolver:  Solving for k, Initial residual = 1.89099e-05, Final residual = 6.39989e-06, No Iterations 2
ExecutionTime = 1.2606 s  ClockTime = 1 s

Time = 589s

smoothSolver:  Solving for Ux, Initial residual = 1.04188e-05, Final residual = 6.40132e-06, No Iterations 1
smoothSolver:  Solving for Uy, Initial residual = 0.0125821, Final residual = 0.000602688, No Iterations 3
Pressure gradient source: uncorrected Ubar = 1, pressure gradient = 0.00302608
GAMG:  Solving for p, Initial residual = 0.00282425, Final residual = 0.000276812, No Iterations 7
time step continuity errors : sum local = 3.23363e-09, global = -7.80537e-18, cumulative = -2.89053e-17
Pressure gradient source: uncorrected Ubar = 1, pressure gradient = 0.00302617
smoothSolver:  Solving for omega, Initial residual = 9.00537e-06, Final residual = 9.00537e-06, No Iterations 0
smoothSolver:  Solving for k, Initial residual = 1.90872e-05, Final residual = 6.82252e-06, No Iterations 2
ExecutionTime = 1.26267 s  ClockTime = 1 s

Time = 590s

smoothSolver:  Solving for Ux, Initial residual = 1.03643e-05, Final residual = 6.36623e-06, No Iterations 1
smoothSolver:  Solving for Uy, Initial residual = 0.0106949, Final residual = 0.000961406, No Iterations 2
Pressure gradient source: uncorrected Ubar = 1, pressure gradient = 0.00302606
GAMG:  Solving for p, Initial residual = 0.00260661, Final residual = 0.000236139, No Iterations 7
time step continuity errors : sum local = 3.26126e-09, global = -2.63882e-18, cumulative = -3.15441e-17
Pressure gradient source: uncorrected Ubar = 1, pressure gradient = 0.00302615
smoothSolver:  Solving for omega, Initial residual = 9.03304e-06, Final residual = 9.03304e-06, No Iterations 0
smoothSolver:  Solving for k, Initial residual = 1.87398e-05, Final residual = 6.82771e-06, No Iterations 2
ExecutionTime = 1.26469 s  ClockTime = 1 s

Time = 591s

smoothSolver:  Solving for Ux, Initial residual = 1.0308e-05, Final residual = 6.33007e-06, No Iterations 1
smoothSolver:  Solving for Uy, Initial residual = 0.0105752, Final residual = 0.000523417, No Iterations 3
Pressure gradient source: uncorrected Ubar = 1, pressure gradient = 0.00302604
GAMG:  Solving for p, Initial residual = 0.00240156, Final residual = 0.000215072, No Iterations 7
time step continuity errors : sum local = 2.65375e-09, global = -2.48007e-18, cumulative = -3.40242e-17
Pressure gradient source: uncorrected Ubar = 1, pressure gradient = 0.00302613
smoothSolver:  Solving for omega, Initial residual = 9.06036e-06, Final residual = 9.06036e-06, No Iterations 0
smoothSolver:  Solving for k, Initial residual = 1.76416e-05, Final residual = 5.89562e-06, No Iterations 2
ExecutionTime = 1.26666 s  ClockTime = 1 s

Time = 592s

smoothSolver:  Solving for Ux, Initial residual = 1.02507e-05, Final residual = 6.29324e-06, No Iterations 1
smoothSolver:  Solving for Uy, Initial residual = 0.00904255, Final residual = 0.000888584, No Iterations 2
Pressure gradient source: uncorrected Ubar = 1, pressure gradient = 0.00302602
GAMG:  Solving for p, Initial residual = 0.00207739, Final residual = 0.000168512, No Iterations 8
time step continuity errors : sum local = 1.91444e-09, global = -1.48104e-18, cumulative = -3.55052e-17
Pressure gradient source: uncorrected Ubar = 1, pressure gradient = 0.00302611
smoothSolver:  Solving for omega, Initial residual = 9.08751e-06, Final residual = 9.08751e-06, No Iterations 0
smoothSolver:  Solving for k, Initial residual = 1.81161e-05, Final residual = 6.7008e-06, No Iterations 2
ExecutionTime = 1.26867 s  ClockTime = 1 s


SIMPLE solution converged in 592 iterations

End

