/*---------------------------------------------------------------------------*\
  =========                 |
  \\      /  F ield         | OpenFOAM: The Open Source CFD Toolbox
   \\    /   O peration     | Website:  https://openfoam.org
    \\  /    A nd           | Version:  10
     \\/     M anipulation  |
\*---------------------------------------------------------------------------*/
Build  : 10-e450dce21ea5
Exec   : blockMesh
Date   : Jan 16 2023
Time   : 11:44:24
Host   : "w530-R9YK46P"
PID    : 14501
I/O    : uncollated
Case   : /home/jdmezazeron/gitDanielMezaZ/turbulenceVisualized/Data/SimulationFiles/E29_Re36204
nProcs : 1
sigFpe : Enabling floating point exception trapping (FOAM_SIGFPE).
fileModificationChecking : Monitoring run-time modified files using timeStampMaster (fileModificationSkew 10)
allowSystemOperations : Allowing user-supplied system call operations

// * * * * * * * * * * * * * * * * * * * * * * * * * * * * * * * * * * * * * //
Create time

Reading "blockMeshDict"

Creating block mesh from
    "system/blockMeshDict"
Creating block edges
No non-planar block faces defined
Creating topology blocks
Creating topology patches

Creating block mesh topology

Check topology

	Basic statistics
		Number of internal faces : 0
		Number of boundary faces : 6
		Number of defined boundary faces : 6
		Number of undefined boundary faces : 0
	Checking patch -> block consistency

Creating block offsets
Creating merge list .

Creating polyMesh from blockMesh
Creating patches
Creating cells
Creating points with scale 1
    Block 0 cell size :
        i : 0.5
        j : 0.00921276 .. 0.036851
        k : 2

Detected cyclic patches; ordering boundary faces

Writing polyMesh
----------------
Mesh Information
----------------
  boundingBox: (-1 0 -1) (1 1 1)
  nPoints: 510
  nCells: 200
  nFaces: 854
  nInternalFaces: 346
----------------
Patches
----------------
  patch 0 (start: 346 size: 50) name: inlet
  patch 1 (start: 396 size: 50) name: outlet
  patch 2 (start: 446 size: 4) name: fixedWalls-bottom
  patch 3 (start: 450 size: 4) name: fixedWalls-top
  patch 4 (start: 454 size: 400) name: frontAndBack

End

/*---------------------------------------------------------------------------*\
  =========                 |
  \\      /  F ield         | OpenFOAM: The Open Source CFD Toolbox
   \\    /   O peration     | Website:  https://openfoam.org
    \\  /    A nd           | Version:  10
     \\/     M anipulation  |
\*---------------------------------------------------------------------------*/
Build  : 10-e450dce21ea5
Exec   : simpleFoam
Date   : Jan 16 2023
Time   : 11:44:24
Host   : "w530-R9YK46P"
PID    : 14502
I/O    : uncollated
Case   : /home/jdmezazeron/gitDanielMezaZ/turbulenceVisualized/Data/SimulationFiles/E29_Re36204
nProcs : 1
sigFpe : Enabling floating point exception trapping (FOAM_SIGFPE).
fileModificationChecking : Monitoring run-time modified files using timeStampMaster (fileModificationSkew 10)
allowSystemOperations : Allowing user-supplied system call operations

// * * * * * * * * * * * * * * * * * * * * * * * * * * * * * * * * * * * * * //
Create time

Create mesh for time = 0


SIMPLE: Convergence criteria found
        U: tolerance 0.01
        p: tolerance 0.01
        omega: tolerance 0.0001

Reading field p

Reading field U

Reading/calculating face flux field phi

Selecting viscosity model Newtonian
Selecting turbulence model type RAS
Selecting RAS turbulence model kOmegaSST
Selecting patchDistMethod meshWave
RAS
{
    RASModel        kOmegaSST;
    turbulence      on;
    printCoeffs     on;
    alphaK1         0.85;
    alphaK2         1;
    alphaOmega1     0.5;
    alphaOmega2     0.856;
    gamma1          0.555556;
    gamma2          0.44;
    beta1           0.075;
    beta2           0.0828;
    betaStar        0.09;
    a1              0.31;
    b1              1;
    c1              10;
    F3              false;
}

No MRF models present

--> FOAM Warning : Creating fvModels from "system/fvOptions" rather than constant/fvModels
No fvModels present
--> FOAM Warning : Creating fvConstraints from "system/fvOptions"

Selecting finite volume constraint type meanVelocityForce
    Name: momentumSource
    - selecting all cells
    - selected 200 cell(s) with volume 4
    Initial pressure gradient = 0


Starting time loop

turbulenceFields stressComponents: storing fields:
    R

Time = 1s

smoothSolver:  Solving for Ux, Initial residual = 0, Final residual = 0, No Iterations 0
smoothSolver:  Solving for Uy, Initial residual = 0, Final residual = 0, No Iterations 0
Pressure gradient source: uncorrected Ubar = 0, pressure gradient = 0.927699
GAMG:  Solving for p, Initial residual = 0.99999, Final residual = 0.0991135, No Iterations 2
time step continuity errors : sum local = 5.44079e-17, global = -8.76133e-18, cumulative = -8.76133e-18
Pressure gradient source: uncorrected Ubar = 0.869427, pressure gradient = 0.121132
smoothSolver:  Solving for omega, Initial residual = 0.859333, Final residual = 0.0640261, No Iterations 1
bounding omega, min: -13.3161 max: 208.269 average: 15.947
smoothSolver:  Solving for k, Initial residual = 1, Final residual = 0.0664307, No Iterations 2
ExecutionTime = 0.0127 s  ClockTime = 0 s

Time = 2s

smoothSolver:  Solving for Ux, Initial residual = 0.117241, Final residual = 0.00883744, No Iterations 5
smoothSolver:  Solving for Uy, Initial residual = 1, Final residual = 0.0842974, No Iterations 2
Pressure gradient source: uncorrected Ubar = 1.10256, pressure gradient = -0.492527
GAMG:  Solving for p, Initial residual = 1, Final residual = 0.0675012, No Iterations 5
time step continuity errors : sum local = 0.00598549, global = 4.23516e-18, cumulative = -4.52616e-18
Pressure gradient source: uncorrected Ubar = 1.02614, pressure gradient = -0.0353047
smoothSolver:  Solving for omega, Initial residual = 0.219087, Final residual = 0.00957165, No Iterations 2
smoothSolver:  Solving for k, Initial residual = 0.265912, Final residual = 0.0213398, No Iterations 3
ExecutionTime = 0.014806 s  ClockTime = 0 s

Time = 3s

smoothSolver:  Solving for Ux, Initial residual = 0.125386, Final residual = 0.0108554, No Iterations 4
smoothSolver:  Solving for Uy, Initial residual = 0.64693, Final residual = 0.0616204, No Iterations 2
Pressure gradient source: uncorrected Ubar = 0.961646, pressure gradient = 0.337531
GAMG:  Solving for p, Initial residual = 0.0924398, Final residual = 0.00589969, No Iterations 4
time step continuity errors : sum local = 0.00135369, global = 2.57498e-18, cumulative = -1.95118e-18
Pressure gradient source: uncorrected Ubar = 0.993864, pressure gradient = 0.0243423
smoothSolver:  Solving for omega, Initial residual = 0.0550868, Final residual = 0.0053537, No Iterations 2
smoothSolver:  Solving for k, Initial residual = 0.245953, Final residual = 0.0202349, No Iterations 2
ExecutionTime = 0.016861 s  ClockTime = 0 s

Time = 4s

smoothSolver:  Solving for Ux, Initial residual = 0.0747038, Final residual = 0.00692584, No Iterations 4
smoothSolver:  Solving for Uy, Initial residual = 0.561193, Final residual = 0.037174, No Iterations 3
Pressure gradient source: uncorrected Ubar = 1.00586, pressure gradient = -0.0356846
GAMG:  Solving for p, Initial residual = 0.0252562, Final residual = 0.00246821, No Iterations 14
time step continuity errors : sum local = 0.0013211, global = -1.17839e-17, cumulative = -1.37351e-17
Pressure gradient source: uncorrected Ubar = 1.00098, pressure gradient = 0.0142876
smoothSolver:  Solving for omega, Initial residual = 0.0243897, Final residual = 0.000959125, No Iterations 3
smoothSolver:  Solving for k, Initial residual = 0.123308, Final residual = 0.00875023, No Iterations 3
ExecutionTime = 0.019255 s  ClockTime = 0 s

Time = 5s

smoothSolver:  Solving for Ux, Initial residual = 0.0476327, Final residual = 0.00342903, No Iterations 5
smoothSolver:  Solving for Uy, Initial residual = 0.613962, Final residual = 0.0379985, No Iterations 3
Pressure gradient source: uncorrected Ubar = 1.00154, pressure gradient = -0.00238173
GAMG:  Solving for p, Initial residual = 0.0354267, Final residual = 0.00323382, No Iterations 6
time step continuity errors : sum local = 0.000994295, global = -3.15732e-18, cumulative = -1.68924e-17
Pressure gradient source: uncorrected Ubar = 1.00026, pressure gradient = 0.011459
smoothSolver:  Solving for omega, Initial residual = 0.0135614, Final residual = 0.0010883, No Iterations 3
smoothSolver:  Solving for k, Initial residual = 0.0958755, Final residual = 0.00937221, No Iterations 3
ExecutionTime = 0.021486 s  ClockTime = 0 s

Time = 6s

smoothSolver:  Solving for Ux, Initial residual = 0.0357742, Final residual = 0.00280277, No Iterations 5
smoothSolver:  Solving for Uy, Initial residual = 0.433759, Final residual = 0.0285159, No Iterations 3
Pressure gradient source: uncorrected Ubar = 1.00148, pressure gradient = -0.00530816
GAMG:  Solving for p, Initial residual = 0.0785907, Final residual = 0.00780119, No Iterations 16
time step continuity errors : sum local = 0.000887539, global = -2.741e-18, cumulative = -1.96334e-17
Pressure gradient source: uncorrected Ubar = 1.00024, pressure gradient = 0.00878965
smoothSolver:  Solving for omega, Initial residual = 0.00944618, Final residual = 0.000645948, No Iterations 4
smoothSolver:  Solving for k, Initial residual = 0.0792287, Final residual = 0.0043945, No Iterations 4
ExecutionTime = 0.023968 s  ClockTime = 0 s

Time = 7s

smoothSolver:  Solving for Ux, Initial residual = 0.0274566, Final residual = 0.00233261, No Iterations 5
smoothSolver:  Solving for Uy, Initial residual = 0.438295, Final residual = 0.0245514, No Iterations 3
Pressure gradient source: uncorrected Ubar = 1.00136, pressure gradient = -0.00733098
GAMG:  Solving for p, Initial residual = 0.0597852, Final residual = 0.00531505, No Iterations 16
time step continuity errors : sum local = 0.000515792, global = -2.1485e-18, cumulative = -2.17819e-17
Pressure gradient source: uncorrected Ubar = 1.00021, pressure gradient = 0.00625618
smoothSolver:  Solving for omega, Initial residual = 0.00668919, Final residual = 0.000536914, No Iterations 4
smoothSolver:  Solving for k, Initial residual = 0.0753577, Final residual = 0.00682213, No Iterations 4
ExecutionTime = 0.026481 s  ClockTime = 0 s

Time = 8s

smoothSolver:  Solving for Ux, Initial residual = 0.021581, Final residual = 0.00200092, No Iterations 5
smoothSolver:  Solving for Uy, Initial residual = 0.426983, Final residual = 0.023411, No Iterations 3
Pressure gradient source: uncorrected Ubar = 1.00107, pressure gradient = -0.00707274
GAMG:  Solving for p, Initial residual = 0.0302361, Final residual = 0.00268746, No Iterations 8
time step continuity errors : sum local = 0.000423382, global = -1.95146e-18, cumulative = -2.37333e-17
Pressure gradient source: uncorrected Ubar = 1.00017, pressure gradient = 0.0041755
smoothSolver:  Solving for omega, Initial residual = 0.00535086, Final residual = 0.000266008, No Iterations 4
smoothSolver:  Solving for k, Initial residual = 0.0680001, Final residual = 0.00435378, No Iterations 5
ExecutionTime = 0.028691 s  ClockTime = 0 s

Time = 9s

smoothSolver:  Solving for Ux, Initial residual = 0.0176979, Final residual = 0.00176816, No Iterations 5
smoothSolver:  Solving for Uy, Initial residual = 0.415786, Final residual = 0.02452, No Iterations 3
Pressure gradient source: uncorrected Ubar = 1.00049, pressure gradient = -0.00213646
GAMG:  Solving for p, Initial residual = 0.0195707, Final residual = 0.000967472, No Iterations 4
time step continuity errors : sum local = 0.000158672, global = -5.2516e-19, cumulative = -2.42585e-17
Pressure gradient source: uncorrected Ubar = 1.00007, pressure gradient = 0.00322145
smoothSolver:  Solving for omega, Initial residual = 0.00461193, Final residual = 0.000298279, No Iterations 5
smoothSolver:  Solving for k, Initial residual = 0.0610381, Final residual = 0.00532859, No Iterations 4
ExecutionTime = 0.030749 s  ClockTime = 0 s

Time = 10s

smoothSolver:  Solving for Ux, Initial residual = 0.0150336, Final residual = 0.00104437, No Iterations 6
smoothSolver:  Solving for Uy, Initial residual = 0.452551, Final residual = 0.024748, No Iterations 3
Pressure gradient source: uncorrected Ubar = 1.00037, pressure gradient = -0.00179259
GAMG:  Solving for p, Initial residual = 0.0153077, Final residual = 0.00149204, No Iterations 9
time step continuity errors : sum local = 0.000272847, global = 3.78285e-18, cumulative = -2.04756e-17
Pressure gradient source: uncorrected Ubar = 1.00006, pressure gradient = 0.00246619
smoothSolver:  Solving for omega, Initial residual = 0.00380787, Final residual = 0.000224394, No Iterations 4
smoothSolver:  Solving for k, Initial residual = 0.0553784, Final residual = 0.0035389, No Iterations 5
ExecutionTime = 0.03297 s  ClockTime = 0 s

Time = 11s

smoothSolver:  Solving for Ux, Initial residual = 0.013194, Final residual = 0.000978069, No Iterations 6
smoothSolver:  Solving for Uy, Initial residual = 0.581873, Final residual = 0.0349063, No Iterations 3
Pressure gradient source: uncorrected Ubar = 1.00029, pressure gradient = -0.00160842
GAMG:  Solving for p, Initial residual = 0.0150362, Final residual = 0.00138743, No Iterations 13
time step continuity errors : sum local = 0.000247498, global = 4.61972e-18, cumulative = -1.58559e-17
Pressure gradient source: uncorrected Ubar = 1.00004, pressure gradient = 0.00185806
smoothSolver:  Solving for omega, Initial residual = 0.00341174, Final residual = 0.000216462, No Iterations 5
smoothSolver:  Solving for k, Initial residual = 0.0518085, Final residual = 0.00382008, No Iterations 5
ExecutionTime = 0.035419 s  ClockTime = 0 s

Time = 12s

smoothSolver:  Solving for Ux, Initial residual = 0.011753, Final residual = 0.000919023, No Iterations 6
smoothSolver:  Solving for Uy, Initial residual = 0.700212, Final residual = 0.0479857, No Iterations 3
Pressure gradient source: uncorrected Ubar = 1.00019, pressure gradient = -0.000915581
GAMG:  Solving for p, Initial residual = 0.0175754, Final residual = 0.00168477, No Iterations 15
time step continuity errors : sum local = 0.000193319, global = 6.34089e-18, cumulative = -9.51503e-18
Pressure gradient source: uncorrected Ubar = 1.00003, pressure gradient = 0.00143836
smoothSolver:  Solving for omega, Initial residual = 0.00288331, Final residual = 0.000170517, No Iterations 5
smoothSolver:  Solving for k, Initial residual = 0.0440269, Final residual = 0.0027144, No Iterations 5
ExecutionTime = 0.037845 s  ClockTime = 0 s

Time = 13s

smoothSolver:  Solving for Ux, Initial residual = 0.0106763, Final residual = 0.000869542, No Iterations 6
smoothSolver:  Solving for Uy, Initial residual = 0.59007, Final residual = 0.0449444, No Iterations 3
Pressure gradient source: uncorrected Ubar = 1.00013, pressure gradient = -0.000523329
GAMG:  Solving for p, Initial residual = 0.0230764, Final residual = 0.00189735, No Iterations 16
time step continuity errors : sum local = 0.000141013, global = -4.95175e-18, cumulative = -1.44668e-17
Pressure gradient source: uncorrected Ubar = 1.00002, pressure gradient = 0.00114375
smoothSolver:  Solving for omega, Initial residual = 0.00253147, Final residual = 0.000190319, No Iterations 5
smoothSolver:  Solving for k, Initial residual = 0.0407377, Final residual = 0.00298483, No Iterations 5
ExecutionTime = 0.040364 s  ClockTime = 0 s

Time = 14s

smoothSolver:  Solving for Ux, Initial residual = 0.00985605, Final residual = 0.000835178, No Iterations 6
smoothSolver:  Solving for Uy, Initial residual = 0.414925, Final residual = 0.0328588, No Iterations 3
Pressure gradient source: uncorrected Ubar = 1.00009, pressure gradient = -0.000286554
GAMG:  Solving for p, Initial residual = 0.0347752, Final residual = 0.00297436, No Iterations 16
time step continuity errors : sum local = 0.000116234, global = 4.895e-18, cumulative = -9.57178e-18
Pressure gradient source: uncorrected Ubar = 1.00001, pressure gradient = 0.000927499
smoothSolver:  Solving for omega, Initial residual = 0.00212134, Final residual = 0.000129194, No Iterations 5
smoothSolver:  Solving for k, Initial residual = 0.037153, Final residual = 0.00253526, No Iterations 5
ExecutionTime = 0.042839 s  ClockTime = 0 s

Time = 15s

smoothSolver:  Solving for Ux, Initial residual = 0.0091851, Final residual = 0.000795702, No Iterations 6
smoothSolver:  Solving for Uy, Initial residual = 0.329521, Final residual = 0.0213667, No Iterations 3
Pressure gradient source: uncorrected Ubar = 1.00004, pressure gradient = 0.000213069
GAMG:  Solving for p, Initial residual = 0.0737416, Final residual = 0.0071769, No Iterations 14
time step continuity errors : sum local = 9.42963e-05, global = -4.20298e-18, cumulative = -1.37748e-17
Pressure gradient source: uncorrected Ubar = 1.00001, pressure gradient = 0.000823879
smoothSolver:  Solving for omega, Initial residual = 0.00184242, Final residual = 0.000114518, No Iterations 5
smoothSolver:  Solving for k, Initial residual = 0.0304417, Final residual = 0.00190996, No Iterations 5
ExecutionTime = 0.045225 s  ClockTime = 0 s

Time = 16s

smoothSolver:  Solving for Ux, Initial residual = 0.0089552, Final residual = 0.000771031, No Iterations 6
smoothSolver:  Solving for Uy, Initial residual = 0.284426, Final residual = 0.0153806, No Iterations 3
Pressure gradient source: uncorrected Ubar = 1.00002, pressure gradient = 0.000440077
GAMG:  Solving for p, Initial residual = 0.0366794, Final residual = 0.00317102, No Iterations 13
time step continuity errors : sum local = 7.54611e-05, global = 1.06322e-17, cumulative = -3.14254e-18
Pressure gradient source: uncorrected Ubar = 1, pressure gradient = 0.000770781
smoothSolver:  Solving for omega, Initial residual = 0.00177124, Final residual = 0.000128263, No Iterations 5
smoothSolver:  Solving for k, Initial residual = 0.0292285, Final residual = 0.0020382, No Iterations 5
ExecutionTime = 0.047567 s  ClockTime = 0 s

Time = 17s

smoothSolver:  Solving for Ux, Initial residual = 0.00877597, Final residual = 0.000743799, No Iterations 6
smoothSolver:  Solving for Uy, Initial residual = 0.288124, Final residual = 0.0190847, No Iterations 3
Pressure gradient source: uncorrected Ubar = 1.00001, pressure gradient = 0.000548761
GAMG:  Solving for p, Initial residual = 0.0262984, Final residual = 0.00245777, No Iterations 13
time step continuity errors : sum local = 6.03334e-05, global = -8.20674e-18, cumulative = -1.13493e-17
Pressure gradient source: uncorrected Ubar = 1, pressure gradient = 0.000740333
smoothSolver:  Solving for omega, Initial residual = 0.00158815, Final residual = 0.000105567, No Iterations 5
smoothSolver:  Solving for k, Initial residual = 0.0254905, Final residual = 0.00183307, No Iterations 5
ExecutionTime = 0.049883 s  ClockTime = 0 s

Time = 18s

smoothSolver:  Solving for Ux, Initial residual = 0.00863694, Final residual = 0.000721369, No Iterations 6
smoothSolver:  Solving for Uy, Initial residual = 0.355731, Final residual = 0.0215309, No Iterations 3
Pressure gradient source: uncorrected Ubar = 1, pressure gradient = 0.000706061
GAMG:  Solving for p, Initial residual = 0.0234748, Final residual = 0.00230291, No Iterations 12
time step continuity errors : sum local = 6.01262e-05, global = 2.08878e-18, cumulative = -9.2605e-18
Pressure gradient source: uncorrected Ubar = 1, pressure gradient = 0.000738191
smoothSolver:  Solving for omega, Initial residual = 0.00152974, Final residual = 0.000150559, No Iterations 4
smoothSolver:  Solving for k, Initial residual = 0.0222326, Final residual = 0.00151137, No Iterations 5
ExecutionTime = 0.052224 s  ClockTime = 0 s

Time = 19s

smoothSolver:  Solving for Ux, Initial residual = 0.00852178, Final residual = 0.000704079, No Iterations 6
smoothSolver:  Solving for Uy, Initial residual = 0.433059, Final residual = 0.0287528, No Iterations 3
Pressure gradient source: uncorrected Ubar = 0.999984, pressure gradient = 0.00103276
GAMG:  Solving for p, Initial residual = 0.0237437, Final residual = 0.00199078, No Iterations 13
time step continuity errors : sum local = 4.80519e-05, global = -1.34763e-18, cumulative = -1.06081e-17
Pressure gradient source: uncorrected Ubar = 0.999997, pressure gradient = 0.000789051
smoothSolver:  Solving for omega, Initial residual = 0.00148902, Final residual = 0.000102988, No Iterations 5
smoothSolver:  Solving for k, Initial residual = 0.0193985, Final residual = 0.00123087, No Iterations 5
ExecutionTime = 0.054664 s  ClockTime = 0 s

Time = 20s

smoothSolver:  Solving for Ux, Initial residual = 0.00840171, Final residual = 0.00068579, No Iterations 6
smoothSolver:  Solving for Uy, Initial residual = 0.452295, Final residual = 0.0335052, No Iterations 3
Pressure gradient source: uncorrected Ubar = 0.99999, pressure gradient = 0.00097796
GAMG:  Solving for p, Initial residual = 0.0254039, Final residual = 0.00206494, No Iterations 18
time step continuity errors : sum local = 3.63836e-05, global = 6.48404e-18, cumulative = -4.12409e-18
Pressure gradient source: uncorrected Ubar = 0.999998, pressure gradient = 0.000817803
smoothSolver:  Solving for omega, Initial residual = 0.00142197, Final residual = 9.68232e-05, No Iterations 5
smoothSolver:  Solving for k, Initial residual = 0.0194016, Final residual = 0.00166543, No Iterations 5
ExecutionTime = 0.057195 s  ClockTime = 0 s

Time = 21s

smoothSolver:  Solving for Ux, Initial residual = 0.00828862, Final residual = 0.00067013, No Iterations 6
smoothSolver:  Solving for Uy, Initial residual = 0.479001, Final residual = 0.0350567, No Iterations 3
Pressure gradient source: uncorrected Ubar = 0.999978, pressure gradient = 0.00123854
GAMG:  Solving for p, Initial residual = 0.0255187, Final residual = 0.0025087, No Iterations 12
time step continuity errors : sum local = 4.12174e-05, global = -5.79878e-18, cumulative = -9.92288e-18
Pressure gradient source: uncorrected Ubar = 0.999997, pressure gradient = 0.000883665
smoothSolver:  Solving for omega, Initial residual = 0.00138279, Final residual = 0.000137455, No Iterations 4
smoothSolver:  Solving for k, Initial residual = 0.0190706, Final residual = 0.00169469, No Iterations 5
ExecutionTime = 0.059516 s  ClockTime = 0 s

Time = 22s

smoothSolver:  Solving for Ux, Initial residual = 0.00816085, Final residual = 0.000653721, No Iterations 6
smoothSolver:  Solving for Uy, Initial residual = 0.481213, Final residual = 0.0266574, No Iterations 3
Pressure gradient source: uncorrected Ubar = 0.999979, pressure gradient = 0.00130083
GAMG:  Solving for p, Initial residual = 0.0275099, Final residual = 0.00274183, No Iterations 12
time step continuity errors : sum local = 3.93223e-05, global = 3.04212e-18, cumulative = -6.88076e-18
Pressure gradient source: uncorrected Ubar = 0.999997, pressure gradient = 0.00094581
smoothSolver:  Solving for omega, Initial residual = 0.00141929, Final residual = 0.00011437, No Iterations 5
smoothSolver:  Solving for k, Initial residual = 0.0165432, Final residual = 0.00122311, No Iterations 5
ExecutionTime = 0.061814 s  ClockTime = 0 s

Time = 23s

smoothSolver:  Solving for Ux, Initial residual = 0.00803822, Final residual = 0.000637338, No Iterations 6
smoothSolver:  Solving for Uy, Initial residual = 0.468506, Final residual = 0.0246795, No Iterations 3
Pressure gradient source: uncorrected Ubar = 0.999981, pressure gradient = 0.00133468
GAMG:  Solving for p, Initial residual = 0.0260359, Final residual = 0.00217682, No Iterations 14
time step continuity errors : sum local = 2.83209e-05, global = 3.65389e-18, cumulative = -3.22687e-18
Pressure gradient source: uncorrected Ubar = 0.999997, pressure gradient = 0.000999527
smoothSolver:  Solving for omega, Initial residual = 0.00136052, Final residual = 0.000109987, No Iterations 5
smoothSolver:  Solving for k, Initial residual = 0.0157631, Final residual = 0.00121085, No Iterations 5
ExecutionTime = 0.06418 s  ClockTime = 0 s

Time = 24s

smoothSolver:  Solving for Ux, Initial residual = 0.00792069, Final residual = 0.000622171, No Iterations 6
smoothSolver:  Solving for Uy, Initial residual = 0.464439, Final residual = 0.0304012, No Iterations 3
Pressure gradient source: uncorrected Ubar = 0.999979, pressure gradient = 0.001425
GAMG:  Solving for p, Initial residual = 0.0226528, Final residual = 0.00176068, No Iterations 14
time step continuity errors : sum local = 2.05207e-05, global = 3.80016e-18, cumulative = 5.73291e-19
Pressure gradient source: uncorrected Ubar = 0.999997, pressure gradient = 0.00105623
smoothSolver:  Solving for omega, Initial residual = 0.00126154, Final residual = 0.000122257, No Iterations 4
smoothSolver:  Solving for k, Initial residual = 0.0148492, Final residual = 0.00106549, No Iterations 5
ExecutionTime = 0.066558 s  ClockTime = 0 s

Time = 25s

smoothSolver:  Solving for Ux, Initial residual = 0.00781261, Final residual = 0.000608759, No Iterations 6
smoothSolver:  Solving for Uy, Initial residual = 0.429138, Final residual = 0.0300309, No Iterations 3
Pressure gradient source: uncorrected Ubar = 0.999978, pressure gradient = 0.001517
GAMG:  Solving for p, Initial residual = 0.0203348, Final residual = 0.00199953, No Iterations 10
time step continuity errors : sum local = 1.9898e-05, global = -3.70773e-18, cumulative = -3.13444e-18
Pressure gradient source: uncorrected Ubar = 0.999997, pressure gradient = 0.00111621
smoothSolver:  Solving for omega, Initial residual = 0.0012756, Final residual = 0.00012657, No Iterations 4
smoothSolver:  Solving for k, Initial residual = 0.013775, Final residual = 0.00103879, No Iterations 5
ExecutionTime = 0.068797 s  ClockTime = 0 s

Time = 26s

smoothSolver:  Solving for Ux, Initial residual = 0.00770737, Final residual = 0.000596459, No Iterations 6
smoothSolver:  Solving for Uy, Initial residual = 0.336595, Final residual = 0.020261, No Iterations 3
Pressure gradient source: uncorrected Ubar = 0.999974, pressure gradient = 0.0016746
GAMG:  Solving for p, Initial residual = 0.0192778, Final residual = 0.00190844, No Iterations 5
time step continuity errors : sum local = 1.86584e-05, global = 2.06478e-19, cumulative = -2.92796e-18
Pressure gradient source: uncorrected Ubar = 0.999997, pressure gradient = 0.00119065
smoothSolver:  Solving for omega, Initial residual = 0.00125727, Final residual = 0.00011562, No Iterations 4
smoothSolver:  Solving for k, Initial residual = 0.0133882, Final residual = 0.00105202, No Iterations 5
ExecutionTime = 0.07099 s  ClockTime = 0 s

Time = 27s

smoothSolver:  Solving for Ux, Initial residual = 0.00760857, Final residual = 0.000584208, No Iterations 6
smoothSolver:  Solving for Uy, Initial residual = 0.254293, Final residual = 0.0157154, No Iterations 3
Pressure gradient source: uncorrected Ubar = 0.999976, pressure gradient = 0.00172343
GAMG:  Solving for p, Initial residual = 0.0189729, Final residual = 0.00147368, No Iterations 3
time step continuity errors : sum local = 1.16405e-05, global = 1.04551e-18, cumulative = -1.88245e-18
Pressure gradient source: uncorrected Ubar = 0.999997, pressure gradient = 0.00125762
smoothSolver:  Solving for omega, Initial residual = 0.00127719, Final residual = 9.18781e-05, No Iterations 5
smoothSolver:  Solving for k, Initial residual = 0.0123653, Final residual = 0.000957076, No Iterations 5
ExecutionTime = 0.07303 s  ClockTime = 0 s

Time = 28s

smoothSolver:  Solving for Ux, Initial residual = 0.00749377, Final residual = 0.000570889, No Iterations 6
smoothSolver:  Solving for Uy, Initial residual = 0.219276, Final residual = 0.0127819, No Iterations 3
Pressure gradient source: uncorrected Ubar = 0.999982, pressure gradient = 0.0016535
GAMG:  Solving for p, Initial residual = 0.0183292, Final residual = 0.000587598, No Iterations 3
time step continuity errors : sum local = 4.087e-06, global = -1.09882e-18, cumulative = -2.98127e-18
Pressure gradient source: uncorrected Ubar = 0.999998, pressure gradient = 0.00129769
smoothSolver:  Solving for omega, Initial residual = 0.00120398, Final residual = 0.00011571, No Iterations 4
smoothSolver:  Solving for k, Initial residual = 0.0121936, Final residual = 0.00102705, No Iterations 5
ExecutionTime = 0.075073 s  ClockTime = 0 s

Time = 29s

smoothSolver:  Solving for Ux, Initial residual = 0.00739645, Final residual = 0.000559486, No Iterations 6
smoothSolver:  Solving for Uy, Initial residual = 0.207503, Final residual = 0.0141216, No Iterations 3
Pressure gradient source: uncorrected Ubar = 0.999976, pressure gradient = 0.00183514
GAMG:  Solving for p, Initial residual = 0.017296, Final residual = 0.00140554, No Iterations 3
time step continuity errors : sum local = 8.56894e-06, global = -9.90749e-18, cumulative = -1.28888e-17
Pressure gradient source: uncorrected Ubar = 0.999997, pressure gradient = 0.00136021
smoothSolver:  Solving for omega, Initial residual = 0.00118986, Final residual = 7.43077e-05, No Iterations 5
smoothSolver:  Solving for k, Initial residual = 0.0116286, Final residual = 0.000910158, No Iterations 5
ExecutionTime = 0.077115 s  ClockTime = 0 s

Time = 30s

smoothSolver:  Solving for Ux, Initial residual = 0.00731069, Final residual = 0.000549525, No Iterations 6
smoothSolver:  Solving for Uy, Initial residual = 0.212568, Final residual = 0.0181223, No Iterations 3
Pressure gradient source: uncorrected Ubar = 0.999975, pressure gradient = 0.00194287
GAMG:  Solving for p, Initial residual = 0.0198412, Final residual = 0.00171154, No Iterations 11
time step continuity errors : sum local = 9.40156e-06, global = 2.16142e-18, cumulative = -1.07273e-17
Pressure gradient source: uncorrected Ubar = 0.999997, pressure gradient = 0.00142809
smoothSolver:  Solving for omega, Initial residual = 0.0011771, Final residual = 7.43881e-05, No Iterations 5
smoothSolver:  Solving for k, Initial residual = 0.0107111, Final residual = 0.000904634, No Iterations 5
ExecutionTime = 0.079481 s  ClockTime = 0 s

Time = 31s

smoothSolver:  Solving for Ux, Initial residual = 0.0072161, Final residual = 0.000538857, No Iterations 6
smoothSolver:  Solving for Uy, Initial residual = 0.217353, Final residual = 0.0190856, No Iterations 3
Pressure gradient source: uncorrected Ubar = 0.999981, pressure gradient = 0.00188467
GAMG:  Solving for p, Initial residual = 0.0252704, Final residual = 0.00173149, No Iterations 14
time step continuity errors : sum local = 7.80207e-06, global = 5.39047e-18, cumulative = -5.33688e-18
Pressure gradient source: uncorrected Ubar = 0.999998, pressure gradient = 0.00147039
smoothSolver:  Solving for omega, Initial residual = 0.00116057, Final residual = 7.89212e-05, No Iterations 5
smoothSolver:  Solving for k, Initial residual = 0.00986796, Final residual = 0.00090088, No Iterations 5
ExecutionTime = 0.081779 s  ClockTime = 0 s

Time = 32s

smoothSolver:  Solving for Ux, Initial residual = 0.00712801, Final residual = 0.000528879, No Iterations 6
smoothSolver:  Solving for Uy, Initial residual = 0.20596, Final residual = 0.016696, No Iterations 3
Pressure gradient source: uncorrected Ubar = 0.999981, pressure gradient = 0.00192215
GAMG:  Solving for p, Initial residual = 0.038515, Final residual = 0.00310043, No Iterations 11
time step continuity errors : sum local = 7.22533e-06, global = -5.35063e-18, cumulative = -1.06875e-17
Pressure gradient source: uncorrected Ubar = 0.999998, pressure gradient = 0.00150935
smoothSolver:  Solving for omega, Initial residual = 0.00112435, Final residual = 7.36597e-05, No Iterations 5
smoothSolver:  Solving for k, Initial residual = 0.00954413, Final residual = 0.00074542, No Iterations 5
ExecutionTime = 0.084082 s  ClockTime = 0 s

Time = 33s

smoothSolver:  Solving for Ux, Initial residual = 0.00705075, Final residual = 0.000520505, No Iterations 6
smoothSolver:  Solving for Uy, Initial residual = 0.195262, Final residual = 0.0144021, No Iterations 3
Pressure gradient source: uncorrected Ubar = 0.999978, pressure gradient = 0.00206057
GAMG:  Solving for p, Initial residual = 0.0557353, Final residual = 0.00529119, No Iterations 12
time step continuity errors : sum local = 8.68937e-06, global = -1.38811e-19, cumulative = -1.08263e-17
Pressure gradient source: uncorrected Ubar = 0.999998, pressure gradient = 0.00156408
smoothSolver:  Solving for omega, Initial residual = 0.00106934, Final residual = 6.71425e-05, No Iterations 5
smoothSolver:  Solving for k, Initial residual = 0.00888683, Final residual = 0.000765725, No Iterations 5
ExecutionTime = 0.086604 s  ClockTime = 0 s

Time = 34s

smoothSolver:  Solving for Ux, Initial residual = 0.00697311, Final residual = 0.000511971, No Iterations 6
smoothSolver:  Solving for Uy, Initial residual = 0.178183, Final residual = 0.0149332, No Iterations 3
Pressure gradient source: uncorrected Ubar = 0.999982, pressure gradient = 0.00201005
GAMG:  Solving for p, Initial residual = 0.0322188, Final residual = 0.00310219, No Iterations 12
time step continuity errors : sum local = 6.54855e-06, global = -6.0224e-18, cumulative = -1.68487e-17
Pressure gradient source: uncorrected Ubar = 0.999999, pressure gradient = 0.0015982
smoothSolver:  Solving for omega, Initial residual = 0.00106887, Final residual = 7.18092e-05, No Iterations 5
smoothSolver:  Solving for k, Initial residual = 0.00837892, Final residual = 0.000738158, No Iterations 5
ExecutionTime = 0.088963 s  ClockTime = 0 s

Time = 35s

smoothSolver:  Solving for Ux, Initial residual = 0.00689836, Final residual = 0.000503543, No Iterations 6
smoothSolver:  Solving for Uy, Initial residual = 0.174189, Final residual = 0.0136174, No Iterations 3
Pressure gradient source: uncorrected Ubar = 0.999984, pressure gradient = 0.00201066
GAMG:  Solving for p, Initial residual = 0.0221906, Final residual = 0.00216781, No Iterations 12
time step continuity errors : sum local = 5.71681e-06, global = 1.14269e-17, cumulative = -5.42183e-18
Pressure gradient source: uncorrected Ubar = 0.999999, pressure gradient = 0.0016244
smoothSolver:  Solving for omega, Initial residual = 0.00107163, Final residual = 8.33064e-05, No Iterations 5
smoothSolver:  Solving for k, Initial residual = 0.00761945, Final residual = 0.000560328, No Iterations 5
ExecutionTime = 0.091266 s  ClockTime = 0 s

Time = 36s

smoothSolver:  Solving for Ux, Initial residual = 0.00683931, Final residual = 0.000496995, No Iterations 6
smoothSolver:  Solving for Uy, Initial residual = 0.157194, Final residual = 0.00874009, No Iterations 3
Pressure gradient source: uncorrected Ubar = 0.999978, pressure gradient = 0.00219341
GAMG:  Solving for p, Initial residual = 0.0177038, Final residual = 0.00167748, No Iterations 9
time step continuity errors : sum local = 4.45284e-06, global = -2.64513e-18, cumulative = -8.06695e-18
Pressure gradient source: uncorrected Ubar = 0.999998, pressure gradient = 0.00167681
smoothSolver:  Solving for omega, Initial residual = 0.001017, Final residual = 7.77755e-05, No Iterations 5
smoothSolver:  Solving for k, Initial residual = 0.00718355, Final residual = 0.00057711, No Iterations 5
ExecutionTime = 0.093415 s  ClockTime = 0 s

Time = 37s

smoothSolver:  Solving for Ux, Initial residual = 0.00678381, Final residual = 0.000491085, No Iterations 6
smoothSolver:  Solving for Uy, Initial residual = 0.1594, Final residual = 0.0107528, No Iterations 3
Pressure gradient source: uncorrected Ubar = 0.999979, pressure gradient = 0.00223706
GAMG:  Solving for p, Initial residual = 0.0155496, Final residual = 0.00133532, No Iterations 5
time step continuity errors : sum local = 3.87368e-06, global = -3.2237e-18, cumulative = -1.12907e-17
Pressure gradient source: uncorrected Ubar = 0.999998, pressure gradient = 0.00172593
smoothSolver:  Solving for omega, Initial residual = 0.000978648, Final residual = 6.694e-05, No Iterations 5
smoothSolver:  Solving for k, Initial residual = 0.00692773, Final residual = 0.000556043, No Iterations 5
ExecutionTime = 0.095468 s  ClockTime = 0 s

Time = 38s

smoothSolver:  Solving for Ux, Initial residual = 0.00672307, Final residual = 0.000484607, No Iterations 6
smoothSolver:  Solving for Uy, Initial residual = 0.149266, Final residual = 0.0118748, No Iterations 3
Pressure gradient source: uncorrected Ubar = 0.999984, pressure gradient = 0.00214513
GAMG:  Solving for p, Initial residual = 0.0138543, Final residual = 0.00104678, No Iterations 3
time step continuity errors : sum local = 2.71055e-06, global = -1.37913e-19, cumulative = -1.14286e-17
Pressure gradient source: uncorrected Ubar = 0.999999, pressure gradient = 0.00174849
smoothSolver:  Solving for omega, Initial residual = 0.000970893, Final residual = 6.91898e-05, No Iterations 5
smoothSolver:  Solving for k, Initial residual = 0.0065517, Final residual = 0.000634479, No Iterations 5
ExecutionTime = 0.097501 s  ClockTime = 0 s

Time = 39s

smoothSolver:  Solving for Ux, Initial residual = 0.00667142, Final residual = 0.000479003, No Iterations 6
smoothSolver:  Solving for Uy, Initial residual = 0.141265, Final residual = 0.0119147, No Iterations 3
Pressure gradient source: uncorrected Ubar = 0.999981, pressure gradient = 0.00225443
GAMG:  Solving for p, Initial residual = 0.0134341, Final residual = 0.00112287, No Iterations 2
time step continuity errors : sum local = 2.55618e-06, global = -2.48609e-18, cumulative = -1.39147e-17
Pressure gradient source: uncorrected Ubar = 0.999999, pressure gradient = 0.00178517
smoothSolver:  Solving for omega, Initial residual = 0.000937273, Final residual = 6.76792e-05, No Iterations 5
smoothSolver:  Solving for k, Initial residual = 0.00627944, Final residual = 0.000446376, No Iterations 5
ExecutionTime = 0.099534 s  ClockTime = 0 s

Time = 40s

smoothSolver:  Solving for Ux, Initial residual = 0.00663023, Final residual = 0.000474816, No Iterations 6
smoothSolver:  Solving for Uy, Initial residual = 0.124383, Final residual = 0.0103747, No Iterations 3
Pressure gradient source: uncorrected Ubar = 0.999978, pressure gradient = 0.00237483
GAMG:  Solving for p, Initial residual = 0.0133727, Final residual = 0.000969408, No Iterations 2
time step continuity errors : sum local = 1.90104e-06, global = 4.061e-18, cumulative = -9.85366e-18
Pressure gradient source: uncorrected Ubar = 0.999998, pressure gradient = 0.00183561
smoothSolver:  Solving for omega, Initial residual = 0.00095109, Final residual = 7.79989e-05, No Iterations 5
smoothSolver:  Solving for k, Initial residual = 0.00631745, Final residual = 0.000457344, No Iterations 5
ExecutionTime = 0.101515 s  ClockTime = 0 s

Time = 41s

smoothSolver:  Solving for Ux, Initial residual = 0.00658155, Final residual = 0.000469809, No Iterations 6
smoothSolver:  Solving for Uy, Initial residual = 0.107038, Final residual = 0.00781594, No Iterations 3
Pressure gradient source: uncorrected Ubar = 0.999984, pressure gradient = 0.00228034
GAMG:  Solving for p, Initial residual = 0.0139599, Final residual = 0.00136882, No Iterations 2
time step continuity errors : sum local = 2.52358e-06, global = 3.70504e-18, cumulative = -6.14862e-18
Pressure gradient source: uncorrected Ubar = 0.999999, pressure gradient = 0.00185875
smoothSolver:  Solving for omega, Initial residual = 0.00090519, Final residual = 6.73562e-05, No Iterations 5
smoothSolver:  Solving for k, Initial residual = 0.00649837, Final residual = 0.000570283, No Iterations 5
ExecutionTime = 0.103649 s  ClockTime = 0 s

Time = 42s

smoothSolver:  Solving for Ux, Initial residual = 0.00654251, Final residual = 0.000465554, No Iterations 6
smoothSolver:  Solving for Uy, Initial residual = 0.105408, Final residual = 0.0090868, No Iterations 3
Pressure gradient source: uncorrected Ubar = 0.999983, pressure gradient = 0.00233263
GAMG:  Solving for p, Initial residual = 0.0158336, Final residual = 0.00121299, No Iterations 3
time step continuity errors : sum local = 2.0481e-06, global = -1.23687e-17, cumulative = -1.85174e-17
Pressure gradient source: uncorrected Ubar = 0.999999, pressure gradient = 0.00188604
smoothSolver:  Solving for omega, Initial residual = 0.000857357, Final residual = 6.06284e-05, No Iterations 5
smoothSolver:  Solving for k, Initial residual = 0.00613647, Final residual = 0.000450522, No Iterations 5
ExecutionTime = 0.105695 s  ClockTime = 0 s

Time = 43s

smoothSolver:  Solving for Ux, Initial residual = 0.00651059, Final residual = 0.000462288, No Iterations 6
smoothSolver:  Solving for Uy, Initial residual = 0.0968423, Final residual = 0.00863243, No Iterations 3
Pressure gradient source: uncorrected Ubar = 0.99998, pressure gradient = 0.00244612
GAMG:  Solving for p, Initial residual = 0.0156054, Final residual = 0.00141324, No Iterations 9
time step continuity errors : sum local = 2.03851e-06, global = 3.61476e-18, cumulative = -1.49026e-17
Pressure gradient source: uncorrected Ubar = 0.999999, pressure gradient = 0.00192805
smoothSolver:  Solving for omega, Initial residual = 0.000836066, Final residual = 5.0794e-05, No Iterations 5
smoothSolver:  Solving for k, Initial residual = 0.00605574, Final residual = 0.000447039, No Iterations 5
ExecutionTime = 0.107951 s  ClockTime = 0 s

Time = 44s

smoothSolver:  Solving for Ux, Initial residual = 0.0064723, Final residual = 0.000458326, No Iterations 6
smoothSolver:  Solving for Uy, Initial residual = 0.0808909, Final residual = 0.0061643, No Iterations 3
Pressure gradient source: uncorrected Ubar = 0.999984, pressure gradient = 0.00237824
GAMG:  Solving for p, Initial residual = 0.0173513, Final residual = 0.00162205, No Iterations 10
time step continuity errors : sum local = 2.00186e-06, global = -5.82585e-18, cumulative = -2.07285e-17
Pressure gradient source: uncorrected Ubar = 0.999999, pressure gradient = 0.00194969
smoothSolver:  Solving for omega, Initial residual = 0.0008628, Final residual = 6.44875e-05, No Iterations 5
smoothSolver:  Solving for k, Initial residual = 0.00628136, Final residual = 0.00058354, No Iterations 5
ExecutionTime = 0.11021 s  ClockTime = 0 s

Time = 45s

smoothSolver:  Solving for Ux, Initial residual = 0.00643833, Final residual = 0.000454772, No Iterations 6
smoothSolver:  Solving for Uy, Initial residual = 0.0710966, Final residual = 0.00614624, No Iterations 3
Pressure gradient source: uncorrected Ubar = 0.999983, pressure gradient = 0.00243626
GAMG:  Solving for p, Initial residual = 0.0198438, Final residual = 0.00153017, No Iterations 13
time step continuity errors : sum local = 1.62447e-06, global = 9.22421e-19, cumulative = -1.9806e-17
Pressure gradient source: uncorrected Ubar = 0.999999, pressure gradient = 0.00197673
smoothSolver:  Solving for omega, Initial residual = 0.000854064, Final residual = 7.02418e-05, No Iterations 5
smoothSolver:  Solving for k, Initial residual = 0.00614872, Final residual = 0.000464039, No Iterations 5
ExecutionTime = 0.112536 s  ClockTime = 0 s

Time = 46s

smoothSolver:  Solving for Ux, Initial residual = 0.00641014, Final residual = 0.00045174, No Iterations 6
smoothSolver:  Solving for Uy, Initial residual = 0.0575701, Final residual = 0.00350614, No Iterations 3
Pressure gradient source: uncorrected Ubar = 0.999984, pressure gradient = 0.0024556
GAMG:  Solving for p, Initial residual = 0.0209069, Final residual = 0.00183873, No Iterations 8
time step continuity errors : sum local = 1.75691e-06, global = -7.55736e-18, cumulative = -2.73634e-17
Pressure gradient source: uncorrected Ubar = 0.999999, pressure gradient = 0.00200161
smoothSolver:  Solving for omega, Initial residual = 0.000828015, Final residual = 7.03245e-05, No Iterations 5
smoothSolver:  Solving for k, Initial residual = 0.00646298, Final residual = 0.00054098, No Iterations 5
ExecutionTime = 0.114739 s  ClockTime = 0 s

Time = 47s

smoothSolver:  Solving for Ux, Initial residual = 0.00638202, Final residual = 0.000448867, No Iterations 6
smoothSolver:  Solving for Uy, Initial residual = 0.044737, Final residual = 0.00232017, No Iterations 3
Pressure gradient source: uncorrected Ubar = 0.999983, pressure gradient = 0.00250542
GAMG:  Solving for p, Initial residual = 0.0211762, Final residual = 0.00195878, No Iterations 12
time step continuity errors : sum local = 1.43007e-06, global = 1.02668e-17, cumulative = -1.70966e-17
Pressure gradient source: uncorrected Ubar = 0.999999, pressure gradient = 0.00203032
smoothSolver:  Solving for omega, Initial residual = 0.000799256, Final residual = 5.88259e-05, No Iterations 5
smoothSolver:  Solving for k, Initial residual = 0.00653937, Final residual = 0.000596172, No Iterations 5
ExecutionTime = 0.117026 s  ClockTime = 0 s

Time = 48s

smoothSolver:  Solving for Ux, Initial residual = 0.00634932, Final residual = 0.00044538, No Iterations 6
smoothSolver:  Solving for Uy, Initial residual = 0.0456452, Final residual = 0.00419003, No Iterations 2
Pressure gradient source: uncorrected Ubar = 0.999987, pressure gradient = 0.0024182
GAMG:  Solving for p, Initial residual = 0.0259432, Final residual = 0.00241948, No Iterations 9
time step continuity errors : sum local = 1.43846e-06, global = 5.49772e-18, cumulative = -1.15989e-17
Pressure gradient source: uncorrected Ubar = 1, pressure gradient = 0.00203758
smoothSolver:  Solving for omega, Initial residual = 0.000798459, Final residual = 6.44169e-05, No Iterations 5
smoothSolver:  Solving for k, Initial residual = 0.00644358, Final residual = 0.000523806, No Iterations 5
ExecutionTime = 0.119364 s  ClockTime = 0 s

Time = 49s

smoothSolver:  Solving for Ux, Initial residual = 0.00632611, Final residual = 0.000442733, No Iterations 6
smoothSolver:  Solving for Uy, Initial residual = 0.04155, Final residual = 0.00273153, No Iterations 3
Pressure gradient source: uncorrected Ubar = 0.999984, pressure gradient = 0.00250277
GAMG:  Solving for p, Initial residual = 0.0237408, Final residual = 0.0022927, No Iterations 11
time step continuity errors : sum local = 1.19064e-06, global = -3.85792e-18, cumulative = -1.54568e-17
Pressure gradient source: uncorrected Ubar = 0.999999, pressure gradient = 0.00205803
smoothSolver:  Solving for omega, Initial residual = 0.000774517, Final residual = 6.41924e-05, No Iterations 5
smoothSolver:  Solving for k, Initial residual = 0.00672764, Final residual = 0.00062588, No Iterations 5
ExecutionTime = 0.121653 s  ClockTime = 0 s

Time = 50s

smoothSolver:  Solving for Ux, Initial residual = 0.0063042, Final residual = 0.000440455, No Iterations 6
smoothSolver:  Solving for Uy, Initial residual = 0.0425999, Final residual = 0.00267151, No Iterations 3
Pressure gradient source: uncorrected Ubar = 0.999984, pressure gradient = 0.00253704
GAMG:  Solving for p, Initial residual = 0.025707, Final residual = 0.00229004, No Iterations 9
time step continuity errors : sum local = 1.29965e-06, global = -1.23552e-17, cumulative = -2.7812e-17
Pressure gradient source: uncorrected Ubar = 0.999999, pressure gradient = 0.00208028
smoothSolver:  Solving for omega, Initial residual = 0.000757985, Final residual = 6.59935e-05, No Iterations 5
smoothSolver:  Solving for k, Initial residual = 0.0067181, Final residual = 0.000591624, No Iterations 5
ExecutionTime = 0.123882 s  ClockTime = 0 s

Time = 51s

smoothSolver:  Solving for Ux, Initial residual = 0.00628226, Final residual = 0.0004383, No Iterations 6
smoothSolver:  Solving for Uy, Initial residual = 0.0382119, Final residual = 0.00256281, No Iterations 3
Pressure gradient source: uncorrected Ubar = 0.999985, pressure gradient = 0.00254793
GAMG:  Solving for p, Initial residual = 0.0229243, Final residual = 0.00208282, No Iterations 14
time step continuity errors : sum local = 1.20063e-06, global = -4.47306e-18, cumulative = -3.22851e-17
Pressure gradient source: uncorrected Ubar = 0.999999, pressure gradient = 0.00210004
smoothSolver:  Solving for omega, Initial residual = 0.000717057, Final residual = 5.10381e-05, No Iterations 5
smoothSolver:  Solving for k, Initial residual = 0.00691623, Final residual = 0.000545079, No Iterations 5
ExecutionTime = 0.126215 s  ClockTime = 0 s

Time = 52s

smoothSolver:  Solving for Ux, Initial residual = 0.00626498, Final residual = 0.000436522, No Iterations 6
smoothSolver:  Solving for Uy, Initial residual = 0.0384289, Final residual = 0.00270275, No Iterations 3
Pressure gradient source: uncorrected Ubar = 0.999985, pressure gradient = 0.00254626
GAMG:  Solving for p, Initial residual = 0.0244573, Final residual = 0.00216763, No Iterations 8
time step continuity errors : sum local = 1.18402e-06, global = 2.72411e-18, cumulative = -2.9561e-17
Pressure gradient source: uncorrected Ubar = 0.999999, pressure gradient = 0.00211572
smoothSolver:  Solving for omega, Initial residual = 0.0007117, Final residual = 4.93907e-05, No Iterations 5
smoothSolver:  Solving for k, Initial residual = 0.00736172, Final residual = 0.000502161, No Iterations 6
ExecutionTime = 0.128341 s  ClockTime = 0 s

Time = 53s

smoothSolver:  Solving for Ux, Initial residual = 0.00624766, Final residual = 0.000434635, No Iterations 6
smoothSolver:  Solving for Uy, Initial residual = 0.0347148, Final residual = 0.00249615, No Iterations 3
Pressure gradient source: uncorrected Ubar = 0.999986, pressure gradient = 0.00255896
GAMG:  Solving for p, Initial residual = 0.0241878, Final residual = 0.00231207, No Iterations 13
time step continuity errors : sum local = 1.04398e-06, global = 1.76544e-18, cumulative = -2.77955e-17
Pressure gradient source: uncorrected Ubar = 1, pressure gradient = 0.00213034
smoothSolver:  Solving for omega, Initial residual = 0.000709615, Final residual = 5.37409e-05, No Iterations 5
smoothSolver:  Solving for k, Initial residual = 0.00742807, Final residual = 0.000709804, No Iterations 5
ExecutionTime = 0.130726 s  ClockTime = 0 s

Time = 54s

smoothSolver:  Solving for Ux, Initial residual = 0.00622886, Final residual = 0.000432556, No Iterations 6
smoothSolver:  Solving for Uy, Initial residual = 0.0425313, Final residual = 0.00231459, No Iterations 4
Pressure gradient source: uncorrected Ubar = 0.999987, pressure gradient = 0.00254141
GAMG:  Solving for p, Initial residual = 0.0238213, Final residual = 0.00195223, No Iterations 9
time step continuity errors : sum local = 8.74237e-07, global = 9.65024e-18, cumulative = -1.81453e-17
Pressure gradient source: uncorrected Ubar = 1, pressure gradient = 0.00213887
smoothSolver:  Solving for omega, Initial residual = 0.000699065, Final residual = 5.47746e-05, No Iterations 5
smoothSolver:  Solving for k, Initial residual = 0.00768738, Final residual = 0.000711065, No Iterations 5
ExecutionTime = 0.132928 s  ClockTime = 0 s

Time = 55s

smoothSolver:  Solving for Ux, Initial residual = 0.00621352, Final residual = 0.00043064, No Iterations 6
smoothSolver:  Solving for Uy, Initial residual = 0.0311209, Final residual = 0.00269706, No Iterations 3
Pressure gradient source: uncorrected Ubar = 0.999987, pressure gradient = 0.00255986
GAMG:  Solving for p, Initial residual = 0.0227017, Final residual = 0.00194977, No Iterations 13
time step continuity errors : sum local = 7.27369e-07, global = 1.46523e-18, cumulative = -1.66801e-17
Pressure gradient source: uncorrected Ubar = 1, pressure gradient = 0.00214893
smoothSolver:  Solving for omega, Initial residual = 0.000678402, Final residual = 4.8434e-05, No Iterations 5
smoothSolver:  Solving for k, Initial residual = 0.00786564, Final residual = 0.000711452, No Iterations 5
ExecutionTime = 0.13535 s  ClockTime = 0 s

Time = 56s

smoothSolver:  Solving for Ux, Initial residual = 0.00619928, Final residual = 0.000428944, No Iterations 6
smoothSolver:  Solving for Uy, Initial residual = 0.0312734, Final residual = 0.00290439, No Iterations 3
Pressure gradient source: uncorrected Ubar = 0.999987, pressure gradient = 0.00256817
GAMG:  Solving for p, Initial residual = 0.0219035, Final residual = 0.00160759, No Iterations 13
time step continuity errors : sum local = 6.92083e-07, global = -2.6927e-18, cumulative = -1.93728e-17
Pressure gradient source: uncorrected Ubar = 1, pressure gradient = 0.00215851
smoothSolver:  Solving for omega, Initial residual = 0.000685255, Final residual = 5.93429e-05, No Iterations 5
smoothSolver:  Solving for k, Initial residual = 0.00819209, Final residual = 0.00056701, No Iterations 6
ExecutionTime = 0.137763 s  ClockTime = 0 s

Time = 57s

smoothSolver:  Solving for Ux, Initial residual = 0.00618015, Final residual = 0.000426917, No Iterations 6
smoothSolver:  Solving for Uy, Initial residual = 0.0401003, Final residual = 0.00284767, No Iterations 4
Pressure gradient source: uncorrected Ubar = 0.999987, pressure gradient = 0.00256141
GAMG:  Solving for p, Initial residual = 0.0199972, Final residual = 0.00198555, No Iterations 7
time step continuity errors : sum local = 6.9577e-07, global = 4.6647e-18, cumulative = -1.47081e-17
Pressure gradient source: uncorrected Ubar = 1, pressure gradient = 0.00216486
smoothSolver:  Solving for omega, Initial residual = 0.000671435, Final residual = 6.17242e-05, No Iterations 5
smoothSolver:  Solving for k, Initial residual = 0.00843746, Final residual = 0.000591391, No Iterations 6
ExecutionTime = 0.139969 s  ClockTime = 0 s

Time = 58s

smoothSolver:  Solving for Ux, Initial residual = 0.00616419, Final residual = 0.000425111, No Iterations 6
smoothSolver:  Solving for Uy, Initial residual = 0.0375677, Final residual = 0.00246183, No Iterations 4
Pressure gradient source: uncorrected Ubar = 0.999987, pressure gradient = 0.00258071
GAMG:  Solving for p, Initial residual = 0.0179517, Final residual = 0.0017086, No Iterations 12
time step continuity errors : sum local = 8.13838e-07, global = 6.13382e-18, cumulative = -8.57425e-18
Pressure gradient source: uncorrected Ubar = 1, pressure gradient = 0.00217329
smoothSolver:  Solving for omega, Initial residual = 0.000649022, Final residual = 5.56023e-05, No Iterations 5
smoothSolver:  Solving for k, Initial residual = 0.00864827, Final residual = 0.000552792, No Iterations 6
ExecutionTime = 0.142232 s  ClockTime = 1 s

Time = 59s

smoothSolver:  Solving for Ux, Initial residual = 0.00615002, Final residual = 0.000423487, No Iterations 6
smoothSolver:  Solving for Uy, Initial residual = 0.0441312, Final residual = 0.00261574, No Iterations 4
Pressure gradient source: uncorrected Ubar = 0.999987, pressure gradient = 0.00258937
GAMG:  Solving for p, Initial residual = 0.0190487, Final residual = 0.00180266, No Iterations 5
time step continuity errors : sum local = 7.57242e-07, global = -5.38518e-18, cumulative = -1.39594e-17
Pressure gradient source: uncorrected Ubar = 1, pressure gradient = 0.00218165
smoothSolver:  Solving for omega, Initial residual = 0.000622415, Final residual = 4.63825e-05, No Iterations 5
smoothSolver:  Solving for k, Initial residual = 0.00874949, Final residual = 0.000820956, No Iterations 5
ExecutionTime = 0.144215 s  ClockTime = 1 s

Time = 60s

smoothSolver:  Solving for Ux, Initial residual = 0.00613894, Final residual = 0.000422161, No Iterations 6
smoothSolver:  Solving for Uy, Initial residual = 0.0591963, Final residual = 0.00465503, No Iterations 4
Pressure gradient source: uncorrected Ubar = 0.999987, pressure gradient = 0.00259406
GAMG:  Solving for p, Initial residual = 0.0271732, Final residual = 0.00269127, No Iterations 4
time step continuity errors : sum local = 1.15822e-06, global = 1.09961e-17, cumulative = -2.96338e-18
Pressure gradient source: uncorrected Ubar = 1, pressure gradient = 0.00218928
smoothSolver:  Solving for omega, Initial residual = 0.000608754, Final residual = 4.15705e-05, No Iterations 5
smoothSolver:  Solving for k, Initial residual = 0.00927798, Final residual = 0.000648262, No Iterations 6
ExecutionTime = 0.146208 s  ClockTime = 1 s

Time = 61s

smoothSolver:  Solving for Ux, Initial residual = 0.00612291, Final residual = 0.000420346, No Iterations 6
smoothSolver:  Solving for Uy, Initial residual = 0.0481546, Final residual = 0.00361593, No Iterations 4
Pressure gradient source: uncorrected Ubar = 0.999989, pressure gradient = 0.0025579
GAMG:  Solving for p, Initial residual = 0.024532, Final residual = 0.00238806, No Iterations 8
time step continuity errors : sum local = 1.14669e-06, global = 6.18845e-18, cumulative = 3.22507e-18
Pressure gradient source: uncorrected Ubar = 1, pressure gradient = 0.0021891
smoothSolver:  Solving for omega, Initial residual = 0.000602261, Final residual = 4.26484e-05, No Iterations 5
smoothSolver:  Solving for k, Initial residual = 0.00977217, Final residual = 0.000731777, No Iterations 6
ExecutionTime = 0.148278 s  ClockTime = 1 s

Time = 62s

smoothSolver:  Solving for Ux, Initial residual = 0.00610837, Final residual = 0.000418564, No Iterations 6
smoothSolver:  Solving for Uy, Initial residual = 0.0318882, Final residual = 0.00214452, No Iterations 4
Pressure gradient source: uncorrected Ubar = 0.999988, pressure gradient = 0.00256617
GAMG:  Solving for p, Initial residual = 0.0129587, Final residual = 0.00105778, No Iterations 13
time step continuity errors : sum local = 5.93804e-07, global = 6.37672e-18, cumulative = 9.60178e-18
Pressure gradient source: uncorrected Ubar = 1, pressure gradient = 0.00219048
smoothSolver:  Solving for omega, Initial residual = 0.000604251, Final residual = 4.84338e-05, No Iterations 5
smoothSolver:  Solving for k, Initial residual = 0.0092457, Final residual = 0.000805272, No Iterations 5
ExecutionTime = 0.150648 s  ClockTime = 1 s

Time = 63s

smoothSolver:  Solving for Ux, Initial residual = 0.00610191, Final residual = 0.000417692, No Iterations 6
smoothSolver:  Solving for Uy, Initial residual = 0.0432297, Final residual = 0.00244751, No Iterations 4
Pressure gradient source: uncorrected Ubar = 0.999986, pressure gradient = 0.00263475
GAMG:  Solving for p, Initial residual = 0.021433, Final residual = 0.00189727, No Iterations 11
time step continuity errors : sum local = 8.60737e-07, global = -1.99414e-18, cumulative = 7.60764e-18
Pressure gradient source: uncorrected Ubar = 1, pressure gradient = 0.00220387
smoothSolver:  Solving for omega, Initial residual = 0.000595744, Final residual = 5.00504e-05, No Iterations 5
smoothSolver:  Solving for k, Initial residual = 0.00982109, Final residual = 0.000950452, No Iterations 5
ExecutionTime = 0.152956 s  ClockTime = 1 s

Time = 64s

smoothSolver:  Solving for Ux, Initial residual = 0.00609313, Final residual = 0.000416589, No Iterations 6
smoothSolver:  Solving for Uy, Initial residual = 0.028018, Final residual = 0.00187817, No Iterations 4
Pressure gradient source: uncorrected Ubar = 0.999988, pressure gradient = 0.00260628
GAMG:  Solving for p, Initial residual = 0.0182245, Final residual = 0.00181254, No Iterations 13
time step continuity errors : sum local = 6.7038e-07, global = 1.39827e-17, cumulative = 2.15904e-17
Pressure gradient source: uncorrected Ubar = 1, pressure gradient = 0.00220974
smoothSolver:  Solving for omega, Initial residual = 0.000572214, Final residual = 4.18035e-05, No Iterations 5
smoothSolver:  Solving for k, Initial residual = 0.0104825, Final residual = 0.000750464, No Iterations 6
ExecutionTime = 0.155357 s  ClockTime = 1 s

Time = 65s

smoothSolver:  Solving for Ux, Initial residual = 0.00607803, Final residual = 0.000414964, No Iterations 6
smoothSolver:  Solving for Uy, Initial residual = 0.0372722, Final residual = 0.00322613, No Iterations 3
Pressure gradient source: uncorrected Ubar = 0.999989, pressure gradient = 0.00258596
GAMG:  Solving for p, Initial residual = 0.0277902, Final residual = 0.00275934, No Iterations 4
time step continuity errors : sum local = 9.44485e-07, global = 3.95844e-18, cumulative = 2.55488e-17
Pressure gradient source: uncorrected Ubar = 1, pressure gradient = 0.00221101
smoothSolver:  Solving for omega, Initial residual = 0.000556628, Final residual = 4.01727e-05, No Iterations 5
smoothSolver:  Solving for k, Initial residual = 0.0103796, Final residual = 0.000694055, No Iterations 6
ExecutionTime = 0.157425 s  ClockTime = 1 s

Time = 66s

smoothSolver:  Solving for Ux, Initial residual = 0.0060715, Final residual = 0.000413862, No Iterations 6
smoothSolver:  Solving for Uy, Initial residual = 0.0461458, Final residual = 0.00309535, No Iterations 4
Pressure gradient source: uncorrected Ubar = 0.999988, pressure gradient = 0.0026115
GAMG:  Solving for p, Initial residual = 0.0293066, Final residual = 0.00241334, No Iterations 4
time step continuity errors : sum local = 8.77287e-07, global = -3.26834e-18, cumulative = 2.22805e-17
Pressure gradient source: uncorrected Ubar = 1, pressure gradient = 0.00221677
smoothSolver:  Solving for omega, Initial residual = 0.000566358, Final residual = 4.82331e-05, No Iterations 5
smoothSolver:  Solving for k, Initial residual = 0.0108143, Final residual = 0.000714911, No Iterations 6
ExecutionTime = 0.159445 s  ClockTime = 1 s

Time = 67s

smoothSolver:  Solving for Ux, Initial residual = 0.00605617, Final residual = 0.000411967, No Iterations 6
smoothSolver:  Solving for Uy, Initial residual = 0.042458, Final residual = 0.00271351, No Iterations 4
Pressure gradient source: uncorrected Ubar = 0.999989, pressure gradient = 0.00258836
GAMG:  Solving for p, Initial residual = 0.0264543, Final residual = 0.00227689, No Iterations 8
time step continuity errors : sum local = 8.57805e-07, global = 4.17668e-18, cumulative = 2.64572e-17
Pressure gradient source: uncorrected Ubar = 1, pressure gradient = 0.00221741
smoothSolver:  Solving for omega, Initial residual = 0.000546058, Final residual = 4.41438e-05, No Iterations 5
smoothSolver:  Solving for k, Initial residual = 0.0106022, Final residual = 0.00091551, No Iterations 5
ExecutionTime = 0.16156 s  ClockTime = 1 s

Time = 68s

smoothSolver:  Solving for Ux, Initial residual = 0.00604781, Final residual = 0.000410815, No Iterations 6
smoothSolver:  Solving for Uy, Initial residual = 0.0231155, Final residual = 0.00178669, No Iterations 3
Pressure gradient source: uncorrected Ubar = 0.999988, pressure gradient = 0.0026305
GAMG:  Solving for p, Initial residual = 0.0160497, Final residual = 0.00154486, No Iterations 12
time step continuity errors : sum local = 5.5812e-07, global = 1.51034e-17, cumulative = 4.15606e-17
Pressure gradient source: uncorrected Ubar = 1, pressure gradient = 0.00222562
smoothSolver:  Solving for omega, Initial residual = 0.000555761, Final residual = 5.05126e-05, No Iterations 5
smoothSolver:  Solving for k, Initial residual = 0.0115099, Final residual = 0.000796727, No Iterations 6
ExecutionTime = 0.163753 s  ClockTime = 1 s

Time = 69s

smoothSolver:  Solving for Ux, Initial residual = 0.00603515, Final residual = 0.000409006, No Iterations 6
smoothSolver:  Solving for Uy, Initial residual = 0.0371892, Final residual = 0.00318714, No Iterations 4
Pressure gradient source: uncorrected Ubar = 0.99999, pressure gradient = 0.00255732
GAMG:  Solving for p, Initial residual = 0.0215157, Final residual = 0.00209487, No Iterations 11
time step continuity errors : sum local = 6.65312e-07, global = -2.37525e-18, cumulative = 3.91853e-17
Pressure gradient source: uncorrected Ubar = 1, pressure gradient = 0.00221947
smoothSolver:  Solving for omega, Initial residual = 0.000538418, Final residual = 4.49594e-05, No Iterations 5
smoothSolver:  Solving for k, Initial residual = 0.0118327, Final residual = 0.000793303, No Iterations 6
ExecutionTime = 0.166027 s  ClockTime = 1 s

Time = 70s

smoothSolver:  Solving for Ux, Initial residual = 0.00601823, Final residual = 0.000407033, No Iterations 6
smoothSolver:  Solving for Uy, Initial residual = 0.0511027, Final residual = 0.00443724, No Iterations 4
Pressure gradient source: uncorrected Ubar = 0.999989, pressure gradient = 0.00258792
GAMG:  Solving for p, Initial residual = 0.0264255, Final residual = 0.00210779, No Iterations 3
time step continuity errors : sum local = 6.71071e-07, global = 2.64376e-18, cumulative = 4.18291e-17
Pressure gradient source: uncorrected Ubar = 1, pressure gradient = 0.00222012
smoothSolver:  Solving for omega, Initial residual = 0.000518621, Final residual = 4.63647e-05, No Iterations 5
smoothSolver:  Solving for k, Initial residual = 0.0119261, Final residual = 0.000800954, No Iterations 6
ExecutionTime = 0.168032 s  ClockTime = 1 s

Time = 71s

smoothSolver:  Solving for Ux, Initial residual = 0.00600672, Final residual = 0.000405532, No Iterations 6
smoothSolver:  Solving for Uy, Initial residual = 0.0483017, Final residual = 0.00363018, No Iterations 4
Pressure gradient source: uncorrected Ubar = 0.999988, pressure gradient = 0.00261749
GAMG:  Solving for p, Initial residual = 0.0219952, Final residual = 0.00212523, No Iterations 7
time step continuity errors : sum local = 8.5011e-07, global = -7.23044e-18, cumulative = 3.45986e-17
Pressure gradient source: uncorrected Ubar = 1, pressure gradient = 0.0022263
smoothSolver:  Solving for omega, Initial residual = 0.000528115, Final residual = 5.0945e-05, No Iterations 5
smoothSolver:  Solving for k, Initial residual = 0.0123886, Final residual = 0.000855363, No Iterations 6
ExecutionTime = 0.170351 s  ClockTime = 1 s

Time = 72s

smoothSolver:  Solving for Ux, Initial residual = 0.00599096, Final residual = 0.000403345, No Iterations 6
smoothSolver:  Solving for Uy, Initial residual = 0.0369375, Final residual = 0.00264966, No Iterations 4
Pressure gradient source: uncorrected Ubar = 0.99999, pressure gradient = 0.00255569
GAMG:  Solving for p, Initial residual = 0.0195319, Final residual = 0.00188829, No Iterations 6
time step continuity errors : sum local = 6.97563e-07, global = 2.24275e-18, cumulative = 3.68414e-17
Pressure gradient source: uncorrected Ubar = 1, pressure gradient = 0.00222054
smoothSolver:  Solving for omega, Initial residual = 0.000508906, Final residual = 4.41746e-05, No Iterations 5
smoothSolver:  Solving for k, Initial residual = 0.0126239, Final residual = 0.000846035, No Iterations 6
ExecutionTime = 0.172514 s  ClockTime = 1 s

Time = 73s

smoothSolver:  Solving for Ux, Initial residual = 0.00597749, Final residual = 0.000401056, No Iterations 6
smoothSolver:  Solving for Uy, Initial residual = 0.0487786, Final residual = 0.0044793, No Iterations 4
Pressure gradient source: uncorrected Ubar = 0.99999, pressure gradient = 0.00255858
GAMG:  Solving for p, Initial residual = 0.0283497, Final residual = 0.00260525, No Iterations 4
time step continuity errors : sum local = 9.4541e-07, global = 7.00534e-18, cumulative = 4.38467e-17
Pressure gradient source: uncorrected Ubar = 1, pressure gradient = 0.0022166
smoothSolver:  Solving for omega, Initial residual = 0.000487251, Final residual = 3.69332e-05, No Iterations 5
smoothSolver:  Solving for k, Initial residual = 0.0131134, Final residual = 0.000891675, No Iterations 6
ExecutionTime = 0.174588 s  ClockTime = 1 s

Time = 74s

smoothSolver:  Solving for Ux, Initial residual = 0.00596057, Final residual = 0.000398905, No Iterations 6
smoothSolver:  Solving for Uy, Initial residual = 0.0712966, Final residual = 0.00507033, No Iterations 4
Pressure gradient source: uncorrected Ubar = 0.99999, pressure gradient = 0.00257483
GAMG:  Solving for p, Initial residual = 0.0302672, Final residual = 0.00289331, No Iterations 4
time step continuity errors : sum local = 1.08814e-06, global = -4.37925e-18, cumulative = 3.94675e-17
Pressure gradient source: uncorrected Ubar = 1, pressure gradient = 0.00221662
smoothSolver:  Solving for omega, Initial residual = 0.000469689, Final residual = 3.45344e-05, No Iterations 5
smoothSolver:  Solving for k, Initial residual = 0.0129024, Final residual = 0.00118125, No Iterations 5
ExecutionTime = 0.176577 s  ClockTime = 1 s

Time = 75s

smoothSolver:  Solving for Ux, Initial residual = 0.00595184, Final residual = 0.000397451, No Iterations 6
smoothSolver:  Solving for Uy, Initial residual = 0.0332384, Final residual = 0.00328991, No Iterations 3
Pressure gradient source: uncorrected Ubar = 0.999988, pressure gradient = 0.00261916
GAMG:  Solving for p, Initial residual = 0.0118936, Final residual = 0.000889802, No Iterations 18
time step continuity errors : sum local = 4.44386e-07, global = -7.63945e-18, cumulative = 3.1828e-17
Pressure gradient source: uncorrected Ubar = 1, pressure gradient = 0.00222503
smoothSolver:  Solving for omega, Initial residual = 0.000496812, Final residual = 3.27518e-05, No Iterations 6
smoothSolver:  Solving for k, Initial residual = 0.0139815, Final residual = 0.00104761, No Iterations 6
ExecutionTime = 0.179015 s  ClockTime = 1 s

Time = 76s

smoothSolver:  Solving for Ux, Initial residual = 0.00593216, Final residual = 0.00039513, No Iterations 6
smoothSolver:  Solving for Uy, Initial residual = 0.0442177, Final residual = 0.00307903, No Iterations 4
Pressure gradient source: uncorrected Ubar = 0.999991, pressure gradient = 0.00255031
GAMG:  Solving for p, Initial residual = 0.0166139, Final residual = 0.00135576, No Iterations 13
time step continuity errors : sum local = 5.50249e-07, global = -1.64394e-18, cumulative = 3.01841e-17
Pressure gradient source: uncorrected Ubar = 1, pressure gradient = 0.0022199
smoothSolver:  Solving for omega, Initial residual = 0.000481127, Final residual = 4.47698e-05, No Iterations 5
smoothSolver:  Solving for k, Initial residual = 0.0140985, Final residual = 0.000959968, No Iterations 6
ExecutionTime = 0.181256 s  ClockTime = 1 s

Time = 77s

smoothSolver:  Solving for Ux, Initial residual = 0.00590919, Final residual = 0.000392519, No Iterations 6
smoothSolver:  Solving for Uy, Initial residual = 0.0368744, Final residual = 0.00278778, No Iterations 4
Pressure gradient source: uncorrected Ubar = 0.99999, pressure gradient = 0.00256966
GAMG:  Solving for p, Initial residual = 0.0185798, Final residual = 0.00185775, No Iterations 4
time step continuity errors : sum local = 6.46311e-07, global = -4.12108e-19, cumulative = 2.9772e-17
Pressure gradient source: uncorrected Ubar = 1, pressure gradient = 0.00221946
smoothSolver:  Solving for omega, Initial residual = 0.000465427, Final residual = 4.1845e-05, No Iterations 5
smoothSolver:  Solving for k, Initial residual = 0.0138294, Final residual = 0.00130259, No Iterations 5
ExecutionTime = 0.18331 s  ClockTime = 1 s

Time = 78s

smoothSolver:  Solving for Ux, Initial residual = 0.00589402, Final residual = 0.000390235, No Iterations 6
smoothSolver:  Solving for Uy, Initial residual = 0.0459373, Final residual = 0.00319906, No Iterations 4
Pressure gradient source: uncorrected Ubar = 0.99999, pressure gradient = 0.00256853
GAMG:  Solving for p, Initial residual = 0.0326757, Final residual = 0.00259137, No Iterations 4
time step continuity errors : sum local = 8.88523e-07, global = -7.98408e-19, cumulative = 2.89736e-17
Pressure gradient source: uncorrected Ubar = 1, pressure gradient = 0.00221924
smoothSolver:  Solving for omega, Initial residual = 0.000430902, Final residual = 2.86033e-05, No Iterations 5
smoothSolver:  Solving for k, Initial residual = 0.0146727, Final residual = 0.000953657, No Iterations 6
ExecutionTime = 0.185467 s  ClockTime = 1 s

Time = 79s

smoothSolver:  Solving for Ux, Initial residual = 0.00587929, Final residual = 0.000388058, No Iterations 6
smoothSolver:  Solving for Uy, Initial residual = 0.0843914, Final residual = 0.00726596, No Iterations 4
Pressure gradient source: uncorrected Ubar = 0.99999, pressure gradient = 0.00258303
GAMG:  Solving for p, Initial residual = 0.0310963, Final residual = 0.00306602, No Iterations 10
time step continuity errors : sum local = 1.0031e-06, global = -7.48903e-18, cumulative = 2.14845e-17
Pressure gradient source: uncorrected Ubar = 1, pressure gradient = 0.00222219
smoothSolver:  Solving for omega, Initial residual = 0.000446639, Final residual = 3.87661e-05, No Iterations 5
smoothSolver:  Solving for k, Initial residual = 0.0156133, Final residual = 0.00121134, No Iterations 6
ExecutionTime = 0.18781 s  ClockTime = 1 s

Time = 80s

smoothSolver:  Solving for Ux, Initial residual = 0.00585335, Final residual = 0.000584358, No Iterations 5
smoothSolver:  Solving for Uy, Initial residual = 0.0444987, Final residual = 0.00278432, No Iterations 4
Pressure gradient source: uncorrected Ubar = 0.999982, pressure gradient = 0.00285197
GAMG:  Solving for p, Initial residual = 0.0257064, Final residual = 0.00226453, No Iterations 3
time step continuity errors : sum local = 7.85909e-07, global = 1.26697e-17, cumulative = 3.41542e-17
Pressure gradient source: uncorrected Ubar = 0.999999, pressure gradient = 0.00225586
smoothSolver:  Solving for omega, Initial residual = 0.00042637, Final residual = 3.71852e-05, No Iterations 5
smoothSolver:  Solving for k, Initial residual = 0.0153031, Final residual = 0.00150314, No Iterations 5
ExecutionTime = 0.189848 s  ClockTime = 1 s

Time = 81s

smoothSolver:  Solving for Ux, Initial residual = 0.00582936, Final residual = 0.000581052, No Iterations 5
smoothSolver:  Solving for Uy, Initial residual = 0.0511348, Final residual = 0.00383597, No Iterations 4
Pressure gradient source: uncorrected Ubar = 0.999986, pressure gradient = 0.00273905
GAMG:  Solving for p, Initial residual = 0.0258331, Final residual = 0.0023486, No Iterations 4
time step continuity errors : sum local = 8.04106e-07, global = 2.61915e-18, cumulative = 3.67733e-17
Pressure gradient source: uncorrected Ubar = 1, pressure gradient = 0.00226298
smoothSolver:  Solving for omega, Initial residual = 0.000425526, Final residual = 3.77897e-05, No Iterations 5
smoothSolver:  Solving for k, Initial residual = 0.0161434, Final residual = 0.00115266, No Iterations 6
ExecutionTime = 0.191858 s  ClockTime = 1 s

Time = 82s

smoothSolver:  Solving for Ux, Initial residual = 0.00579986, Final residual = 0.000577603, No Iterations 5
smoothSolver:  Solving for Uy, Initial residual = 0.063286, Final residual = 0.00444072, No Iterations 4
Pressure gradient source: uncorrected Ubar = 0.999986, pressure gradient = 0.00276708
GAMG:  Solving for p, Initial residual = 0.0309686, Final residual = 0.00241226, No Iterations 4
time step continuity errors : sum local = 7.90778e-07, global = 4.4353e-18, cumulative = 4.12086e-17
Pressure gradient source: uncorrected Ubar = 1, pressure gradient = 0.00227452
smoothSolver:  Solving for omega, Initial residual = 0.000411476, Final residual = 3.30278e-05, No Iterations 5
smoothSolver:  Solving for k, Initial residual = 0.0158932, Final residual = 0.00106515, No Iterations 6
ExecutionTime = 0.193815 s  ClockTime = 1 s

Time = 83s

smoothSolver:  Solving for Ux, Initial residual = 0.00577213, Final residual = 0.00057413, No Iterations 5
smoothSolver:  Solving for Uy, Initial residual = 0.046189, Final residual = 0.00413077, No Iterations 4
Pressure gradient source: uncorrected Ubar = 0.999986, pressure gradient = 0.00275624
GAMG:  Solving for p, Initial residual = 0.0233337, Final residual = 0.0020587, No Iterations 8
time step continuity errors : sum local = 7.19444e-07, global = -6.69791e-18, cumulative = 3.45107e-17
Pressure gradient source: uncorrected Ubar = 1, pressure gradient = 0.00228257
smoothSolver:  Solving for omega, Initial residual = 0.000405812, Final residual = 3.32885e-05, No Iterations 5
smoothSolver:  Solving for k, Initial residual = 0.0167153, Final residual = 0.00116852, No Iterations 6
ExecutionTime = 0.195883 s  ClockTime = 1 s

Time = 84s

smoothSolver:  Solving for Ux, Initial residual = 0.005739, Final residual = 0.000569739, No Iterations 5
smoothSolver:  Solving for Uy, Initial residual = 0.0546515, Final residual = 0.00501984, No Iterations 4
Pressure gradient source: uncorrected Ubar = 0.999987, pressure gradient = 0.00273796
GAMG:  Solving for p, Initial residual = 0.019503, Final residual = 0.00190213, No Iterations 7
time step continuity errors : sum local = 7.20365e-07, global = -2.97651e-18, cumulative = 3.15342e-17
Pressure gradient source: uncorrected Ubar = 1, pressure gradient = 0.00228637
smoothSolver:  Solving for omega, Initial residual = 0.000417515, Final residual = 2.81376e-05, No Iterations 6
smoothSolver:  Solving for k, Initial residual = 0.0173444, Final residual = 0.00131605, No Iterations 6
ExecutionTime = 0.197923 s  ClockTime = 1 s

Time = 85s

smoothSolver:  Solving for Ux, Initial residual = 0.0057019, Final residual = 0.000564515, No Iterations 5
smoothSolver:  Solving for Uy, Initial residual = 0.0491926, Final residual = 0.00400643, No Iterations 4
Pressure gradient source: uncorrected Ubar = 0.999988, pressure gradient = 0.00269416
GAMG:  Solving for p, Initial residual = 0.0176716, Final residual = 0.00170107, No Iterations 13
time step continuity errors : sum local = 6.11284e-07, global = -1.99317e-18, cumulative = 2.9541e-17
Pressure gradient source: uncorrected Ubar = 1, pressure gradient = 0.00228209
smoothSolver:  Solving for omega, Initial residual = 0.000407038, Final residual = 2.67948e-05, No Iterations 6
smoothSolver:  Solving for k, Initial residual = 0.0170699, Final residual = 0.00113517, No Iterations 6
ExecutionTime = 0.20024 s  ClockTime = 1 s

Time = 86s

smoothSolver:  Solving for Ux, Initial residual = 0.00566438, Final residual = 0.00055936, No Iterations 5
smoothSolver:  Solving for Uy, Initial residual = 0.0313228, Final residual = 0.00298987, No Iterations 4
Pressure gradient source: uncorrected Ubar = 0.999988, pressure gradient = 0.00272123
GAMG:  Solving for p, Initial residual = 0.0167441, Final residual = 0.00133429, No Iterations 12
time step continuity errors : sum local = 4.95612e-07, global = 1.1961e-17, cumulative = 4.1502e-17
Pressure gradient source: uncorrected Ubar = 1, pressure gradient = 0.00228422
smoothSolver:  Solving for omega, Initial residual = 0.000396875, Final residual = 2.72607e-05, No Iterations 6
smoothSolver:  Solving for k, Initial residual = 0.0173488, Final residual = 0.00116809, No Iterations 6
ExecutionTime = 0.202706 s  ClockTime = 1 s

Time = 87s

smoothSolver:  Solving for Ux, Initial residual = 0.00559799, Final residual = 0.000553283, No Iterations 5
smoothSolver:  Solving for Uy, Initial residual = 0.0277996, Final residual = 0.00182028, No Iterations 4
Pressure gradient source: uncorrected Ubar = 0.999988, pressure gradient = 0.00269923
GAMG:  Solving for p, Initial residual = 0.0179426, Final residual = 0.00132632, No Iterations 4
time step continuity errors : sum local = 5.22188e-07, global = 3.54464e-18, cumulative = 4.50467e-17
Pressure gradient source: uncorrected Ubar = 1, pressure gradient = 0.00228251
smoothSolver:  Solving for omega, Initial residual = 0.000372123, Final residual = 3.23741e-05, No Iterations 5
smoothSolver:  Solving for k, Initial residual = 0.0176508, Final residual = 0.00118492, No Iterations 6
ExecutionTime = 0.204812 s  ClockTime = 1 s

Time = 88s

smoothSolver:  Solving for Ux, Initial residual = 0.00549884, Final residual = 0.000545475, No Iterations 5
smoothSolver:  Solving for Uy, Initial residual = 0.039623, Final residual = 0.00242644, No Iterations 5
Pressure gradient source: uncorrected Ubar = 0.999989, pressure gradient = 0.00268964
GAMG:  Solving for p, Initial residual = 0.0204158, Final residual = 0.00150934, No Iterations 4
time step continuity errors : sum local = 6.28757e-07, global = -4.5762e-18, cumulative = 4.04705e-17
Pressure gradient source: uncorrected Ubar = 1, pressure gradient = 0.00228024
smoothSolver:  Solving for omega, Initial residual = 0.000371404, Final residual = 3.06422e-05, No Iterations 5
smoothSolver:  Solving for k, Initial residual = 0.0185821, Final residual = 0.00142644, No Iterations 6
ExecutionTime = 0.206864 s  ClockTime = 1 s

Time = 89s

smoothSolver:  Solving for Ux, Initial residual = 0.00542185, Final residual = 0.000536741, No Iterations 5
smoothSolver:  Solving for Uy, Initial residual = 0.041719, Final residual = 0.00346262, No Iterations 4
Pressure gradient source: uncorrected Ubar = 0.999989, pressure gradient = 0.00266045
GAMG:  Solving for p, Initial residual = 0.0153243, Final residual = 0.000609413, No Iterations 4
[...]
Pressure gradient source: uncorrected Ubar = 1, pressure gradient = 0.00258263
smoothSolver:  Solving for omega, Initial residual = 8.71195e-06, Final residual = 8.71195e-06, No Iterations 0
smoothSolver:  Solving for k, Initial residual = 3.4238e-05, Final residual = 9.51943e-06, No Iterations 3
ExecutionTime = 1.19082 s  ClockTime = 2 s

Time = 556s

smoothSolver:  Solving for Ux, Initial residual = 8.81518e-06, Final residual = 8.81518e-06, No Iterations 0
smoothSolver:  Solving for Uy, Initial residual = 0.11391, Final residual = 0.00572896, No Iterations 4
Pressure gradient source: uncorrected Ubar = 1, pressure gradient = 0.00258263
GAMG:  Solving for p, Initial residual = 0.00592874, Final residual = 0.000447177, No Iterations 23
time step continuity errors : sum local = 1.29168e-09, global = -1.02434e-17, cumulative = -3.7642e-17
Pressure gradient source: uncorrected Ubar = 1, pressure gradient = 0.00258263
smoothSolver:  Solving for omega, Initial residual = 8.72379e-06, Final residual = 8.72379e-06, No Iterations 0
smoothSolver:  Solving for k, Initial residual = 3.25747e-05, Final residual = 9.01487e-06, No Iterations 3
ExecutionTime = 1.19325 s  ClockTime = 2 s

Time = 557s

smoothSolver:  Solving for Ux, Initial residual = 8.70614e-06, Final residual = 8.70614e-06, No Iterations 0
smoothSolver:  Solving for Uy, Initial residual = 0.0925163, Final residual = 0.00459741, No Iterations 4
Pressure gradient source: uncorrected Ubar = 1, pressure gradient = 0.00258263
GAMG:  Solving for p, Initial residual = 0.00553102, Final residual = 0.000479067, No Iterations 19
time step continuity errors : sum local = 1.6304e-09, global = 7.36367e-18, cumulative = -3.02783e-17
Pressure gradient source: uncorrected Ubar = 1, pressure gradient = 0.00258264
smoothSolver:  Solving for omega, Initial residual = 8.73661e-06, Final residual = 8.73661e-06, No Iterations 0
smoothSolver:  Solving for k, Initial residual = 3.27622e-05, Final residual = 9.02235e-06, No Iterations 3
ExecutionTime = 1.19559 s  ClockTime = 2 s

Time = 558s

smoothSolver:  Solving for Ux, Initial residual = 8.59558e-06, Final residual = 8.59558e-06, No Iterations 0
smoothSolver:  Solving for Uy, Initial residual = 0.0749691, Final residual = 0.00392431, No Iterations 4
Pressure gradient source: uncorrected Ubar = 1, pressure gradient = 0.00258264
GAMG:  Solving for p, Initial residual = 0.00496362, Final residual = 0.000418547, No Iterations 23
time step continuity errors : sum local = 1.35615e-09, global = 1.41838e-18, cumulative = -2.886e-17
Pressure gradient source: uncorrected Ubar = 1, pressure gradient = 0.00258264
smoothSolver:  Solving for omega, Initial residual = 8.75005e-06, Final residual = 8.75005e-06, No Iterations 0
smoothSolver:  Solving for k, Initial residual = 3.23149e-05, Final residual = 8.92045e-06, No Iterations 3
ExecutionTime = 1.19802 s  ClockTime = 2 s

Time = 559s

smoothSolver:  Solving for Ux, Initial residual = 8.4853e-06, Final residual = 8.4853e-06, No Iterations 0
smoothSolver:  Solving for Uy, Initial residual = 0.0604469, Final residual = 0.00316197, No Iterations 4
Pressure gradient source: uncorrected Ubar = 1, pressure gradient = 0.00258264
GAMG:  Solving for p, Initial residual = 0.0047287, Final residual = 0.000439429, No Iterations 21
time step continuity errors : sum local = 1.14205e-09, global = 4.90984e-18, cumulative = -2.39501e-17
Pressure gradient source: uncorrected Ubar = 1, pressure gradient = 0.00258264
smoothSolver:  Solving for omega, Initial residual = 8.76388e-06, Final residual = 8.76388e-06, No Iterations 0
smoothSolver:  Solving for k, Initial residual = 3.36226e-05, Final residual = 9.32644e-06, No Iterations 3
ExecutionTime = 1.20055 s  ClockTime = 2 s

Time = 560s

smoothSolver:  Solving for Ux, Initial residual = 8.37413e-06, Final residual = 8.37413e-06, No Iterations 0
smoothSolver:  Solving for Uy, Initial residual = 0.0513253, Final residual = 0.00286156, No Iterations 4
Pressure gradient source: uncorrected Ubar = 1, pressure gradient = 0.00258264
GAMG:  Solving for p, Initial residual = 0.00454922, Final residual = 0.000438133, No Iterations 19
time step continuity errors : sum local = 1.32539e-09, global = 5.34636e-18, cumulative = -1.86038e-17
Pressure gradient source: uncorrected Ubar = 1, pressure gradient = 0.00258264
smoothSolver:  Solving for omega, Initial residual = 8.77787e-06, Final residual = 8.77787e-06, No Iterations 0
smoothSolver:  Solving for k, Initial residual = 3.3507e-05, Final residual = 8.96406e-06, No Iterations 3
ExecutionTime = 1.20322 s  ClockTime = 2 s

Time = 561s

smoothSolver:  Solving for Ux, Initial residual = 8.26242e-06, Final residual = 8.26242e-06, No Iterations 0
smoothSolver:  Solving for Uy, Initial residual = 0.0431284, Final residual = 0.00231033, No Iterations 4
Pressure gradient source: uncorrected Ubar = 1, pressure gradient = 0.00258264
GAMG:  Solving for p, Initial residual = 0.0041157, Final residual = 0.000397336, No Iterations 18
time step continuity errors : sum local = 1.24665e-09, global = 2.95794e-18, cumulative = -1.56458e-17
Pressure gradient source: uncorrected Ubar = 1, pressure gradient = 0.00258264
smoothSolver:  Solving for omega, Initial residual = 8.79197e-06, Final residual = 8.79197e-06, No Iterations 0
smoothSolver:  Solving for k, Initial residual = 3.30412e-05, Final residual = 9.15181e-06, No Iterations 3
ExecutionTime = 1.20567 s  ClockTime = 2 s

Time = 562s

smoothSolver:  Solving for Ux, Initial residual = 8.15093e-06, Final residual = 8.15093e-06, No Iterations 0
smoothSolver:  Solving for Uy, Initial residual = 0.0426627, Final residual = 0.00210865, No Iterations 4
Pressure gradient source: uncorrected Ubar = 1, pressure gradient = 0.00258264
GAMG:  Solving for p, Initial residual = 0.00413286, Final residual = 0.000318491, No Iterations 24
time step continuity errors : sum local = 9.20959e-10, global = -5.20355e-19, cumulative = -1.61662e-17
Pressure gradient source: uncorrected Ubar = 1, pressure gradient = 0.00258264
smoothSolver:  Solving for omega, Initial residual = 8.80572e-06, Final residual = 8.80572e-06, No Iterations 0
smoothSolver:  Solving for k, Initial residual = 3.06691e-05, Final residual = 8.10249e-06, No Iterations 3
ExecutionTime = 1.20818 s  ClockTime = 2 s

Time = 563s

smoothSolver:  Solving for Ux, Initial residual = 8.04087e-06, Final residual = 8.04087e-06, No Iterations 0
smoothSolver:  Solving for Uy, Initial residual = 0.0392031, Final residual = 0.00383523, No Iterations 3
Pressure gradient source: uncorrected Ubar = 1, pressure gradient = 0.00258264
GAMG:  Solving for p, Initial residual = 0.0039041, Final residual = 0.000368302, No Iterations 21
time step continuity errors : sum local = 8.90253e-10, global = -1.29962e-17, cumulative = -2.91624e-17
Pressure gradient source: uncorrected Ubar = 1, pressure gradient = 0.00258264
smoothSolver:  Solving for omega, Initial residual = 8.81905e-06, Final residual = 8.81905e-06, No Iterations 0
smoothSolver:  Solving for k, Initial residual = 3.36704e-05, Final residual = 9.37831e-06, No Iterations 3
ExecutionTime = 1.21057 s  ClockTime = 2 s

Time = 564s

smoothSolver:  Solving for Ux, Initial residual = 7.93102e-06, Final residual = 7.93102e-06, No Iterations 0
smoothSolver:  Solving for Uy, Initial residual = 0.0395395, Final residual = 0.00186639, No Iterations 4
Pressure gradient source: uncorrected Ubar = 1, pressure gradient = 0.00258264
GAMG:  Solving for p, Initial residual = 0.00378271, Final residual = 0.000323872, No Iterations 24
time step continuity errors : sum local = 7.50549e-10, global = 8.88445e-18, cumulative = -2.02779e-17
Pressure gradient source: uncorrected Ubar = 1, pressure gradient = 0.00258263
smoothSolver:  Solving for omega, Initial residual = 8.83187e-06, Final residual = 8.83187e-06, No Iterations 0
smoothSolver:  Solving for k, Initial residual = 3.18586e-05, Final residual = 8.64502e-06, No Iterations 3
ExecutionTime = 1.21304 s  ClockTime = 2 s

Time = 565s

smoothSolver:  Solving for Ux, Initial residual = 7.82105e-06, Final residual = 7.82105e-06, No Iterations 0
smoothSolver:  Solving for Uy, Initial residual = 0.0358362, Final residual = 0.00326029, No Iterations 3
Pressure gradient source: uncorrected Ubar = 1, pressure gradient = 0.00258263
GAMG:  Solving for p, Initial residual = 0.00363375, Final residual = 0.000313382, No Iterations 20
time step continuity errors : sum local = 6.26435e-10, global = 1.1285e-17, cumulative = -8.99298e-18
Pressure gradient source: uncorrected Ubar = 1, pressure gradient = 0.00258263
smoothSolver:  Solving for omega, Initial residual = 8.8442e-06, Final residual = 8.8442e-06, No Iterations 0
smoothSolver:  Solving for k, Initial residual = 3.15056e-05, Final residual = 8.60101e-06, No Iterations 3
ExecutionTime = 1.21543 s  ClockTime = 2 s

Time = 566s

smoothSolver:  Solving for Ux, Initial residual = 7.71179e-06, Final residual = 7.71179e-06, No Iterations 0
smoothSolver:  Solving for Uy, Initial residual = 0.0319495, Final residual = 0.00285525, No Iterations 3
Pressure gradient source: uncorrected Ubar = 1, pressure gradient = 0.00258263
GAMG:  Solving for p, Initial residual = 0.00401137, Final residual = 0.0003866, No Iterations 19
time step continuity errors : sum local = 7.05769e-10, global = -3.85204e-18, cumulative = -1.2845e-17
Pressure gradient source: uncorrected Ubar = 1, pressure gradient = 0.00258262
smoothSolver:  Solving for omega, Initial residual = 8.85573e-06, Final residual = 8.85573e-06, No Iterations 0
smoothSolver:  Solving for k, Initial residual = 3.1471e-05, Final residual = 8.54521e-06, No Iterations 3
ExecutionTime = 1.21785 s  ClockTime = 2 s

Time = 567s

smoothSolver:  Solving for Ux, Initial residual = 7.60351e-06, Final residual = 7.60351e-06, No Iterations 0
smoothSolver:  Solving for Uy, Initial residual = 0.0340948, Final residual = 0.00281159, No Iterations 3
Pressure gradient source: uncorrected Ubar = 1, pressure gradient = 0.00258262
GAMG:  Solving for p, Initial residual = 0.00358983, Final residual = 0.000339572, No Iterations 22
time step continuity errors : sum local = 6.85502e-10, global = -1.34031e-18, cumulative = -1.41853e-17
Pressure gradient source: uncorrected Ubar = 1, pressure gradient = 0.00258261
smoothSolver:  Solving for omega, Initial residual = 8.86683e-06, Final residual = 8.86683e-06, No Iterations 0
smoothSolver:  Solving for k, Initial residual = 3.12853e-05, Final residual = 8.3553e-06, No Iterations 3
ExecutionTime = 1.22052 s  ClockTime = 2 s

Time = 568s

smoothSolver:  Solving for Ux, Initial residual = 7.4969e-06, Final residual = 7.4969e-06, No Iterations 0
smoothSolver:  Solving for Uy, Initial residual = 0.0248778, Final residual = 0.00213904, No Iterations 3
Pressure gradient source: uncorrected Ubar = 1, pressure gradient = 0.00258261
GAMG:  Solving for p, Initial residual = 0.00367861, Final residual = 0.000289184, No Iterations 21
time step continuity errors : sum local = 4.74688e-10, global = -5.35339e-18, cumulative = -1.95387e-17
Pressure gradient source: uncorrected Ubar = 1, pressure gradient = 0.00258261
smoothSolver:  Solving for omega, Initial residual = 8.87711e-06, Final residual = 8.87711e-06, No Iterations 0
smoothSolver:  Solving for k, Initial residual = 3.29125e-05, Final residual = 9.20291e-06, No Iterations 3
ExecutionTime = 1.22305 s  ClockTime = 2 s

Time = 569s

smoothSolver:  Solving for Ux, Initial residual = 7.38944e-06, Final residual = 7.38944e-06, No Iterations 0
smoothSolver:  Solving for Uy, Initial residual = 0.0220882, Final residual = 0.00203919, No Iterations 3
Pressure gradient source: uncorrected Ubar = 1, pressure gradient = 0.00258261
GAMG:  Solving for p, Initial residual = 0.00365472, Final residual = 0.000333218, No Iterations 17
time step continuity errors : sum local = 5.78575e-10, global = 4.44161e-18, cumulative = -1.50971e-17
Pressure gradient source: uncorrected Ubar = 1, pressure gradient = 0.0025826
smoothSolver:  Solving for omega, Initial residual = 8.88692e-06, Final residual = 8.88692e-06, No Iterations 0
smoothSolver:  Solving for k, Initial residual = 3.38641e-05, Final residual = 9.64133e-06, No Iterations 3
ExecutionTime = 1.22538 s  ClockTime = 2 s

Time = 570s

smoothSolver:  Solving for Ux, Initial residual = 7.2806e-06, Final residual = 7.2806e-06, No Iterations 0
smoothSolver:  Solving for Uy, Initial residual = 0.0189235, Final residual = 0.00165508, No Iterations 3
Pressure gradient source: uncorrected Ubar = 1, pressure gradient = 0.0025826
GAMG:  Solving for p, Initial residual = 0.00367533, Final residual = 0.000342992, No Iterations 19
time step continuity errors : sum local = 4.8116e-10, global = 8.72394e-18, cumulative = -6.37316e-18
Pressure gradient source: uncorrected Ubar = 1, pressure gradient = 0.00258259
smoothSolver:  Solving for omega, Initial residual = 8.89596e-06, Final residual = 8.89596e-06, No Iterations 0
smoothSolver:  Solving for k, Initial residual = 3.21188e-05, Final residual = 8.85743e-06, No Iterations 3
ExecutionTime = 1.22773 s  ClockTime = 2 s

Time = 571s

smoothSolver:  Solving for Ux, Initial residual = 7.1722e-06, Final residual = 7.1722e-06, No Iterations 0
smoothSolver:  Solving for Uy, Initial residual = 0.0183723, Final residual = 0.0017468, No Iterations 3
Pressure gradient source: uncorrected Ubar = 1, pressure gradient = 0.00258259
GAMG:  Solving for p, Initial residual = 0.00337762, Final residual = 0.000279336, No Iterations 16
time step continuity errors : sum local = 3.83235e-10, global = -9.10881e-18, cumulative = -1.5482e-17
Pressure gradient source: uncorrected Ubar = 1, pressure gradient = 0.00258258
smoothSolver:  Solving for omega, Initial residual = 8.90446e-06, Final residual = 8.90446e-06, No Iterations 0
smoothSolver:  Solving for k, Initial residual = 3.23814e-05, Final residual = 8.95302e-06, No Iterations 3
ExecutionTime = 1.22996 s  ClockTime = 2 s

Time = 572s

smoothSolver:  Solving for Ux, Initial residual = 7.06426e-06, Final residual = 7.06426e-06, No Iterations 0
smoothSolver:  Solving for Uy, Initial residual = 0.0186794, Final residual = 0.00161526, No Iterations 3
Pressure gradient source: uncorrected Ubar = 1, pressure gradient = 0.00258258
GAMG:  Solving for p, Initial residual = 0.00329396, Final residual = 0.00027642, No Iterations 13
time step continuity errors : sum local = 4.22196e-10, global = -3.99002e-18, cumulative = -1.9472e-17
Pressure gradient source: uncorrected Ubar = 1, pressure gradient = 0.00258257
smoothSolver:  Solving for omega, Initial residual = 8.91228e-06, Final residual = 8.91228e-06, No Iterations 0
smoothSolver:  Solving for k, Initial residual = 3.00177e-05, Final residual = 7.99416e-06, No Iterations 3
ExecutionTime = 1.23213 s  ClockTime = 2 s

Time = 573s

smoothSolver:  Solving for Ux, Initial residual = 6.95617e-06, Final residual = 6.95617e-06, No Iterations 0
smoothSolver:  Solving for Uy, Initial residual = 0.0174471, Final residual = 0.000807543, No Iterations 4
Pressure gradient source: uncorrected Ubar = 1, pressure gradient = 0.00258257
GAMG:  Solving for p, Initial residual = 0.00287714, Final residual = 0.000222862, No Iterations 12
time step continuity errors : sum local = 3.94194e-10, global = -5.09074e-18, cumulative = -2.45627e-17
Pressure gradient source: uncorrected Ubar = 1, pressure gradient = 0.00258256
smoothSolver:  Solving for omega, Initial residual = 8.91945e-06, Final residual = 8.91945e-06, No Iterations 0
smoothSolver:  Solving for k, Initial residual = 3.36425e-05, Final residual = 9.71851e-06, No Iterations 3
ExecutionTime = 1.23436 s  ClockTime = 2 s

Time = 574s

smoothSolver:  Solving for Ux, Initial residual = 6.84915e-06, Final residual = 6.84915e-06, No Iterations 0
smoothSolver:  Solving for Uy, Initial residual = 0.0135188, Final residual = 0.00118782, No Iterations 3
Pressure gradient source: uncorrected Ubar = 1, pressure gradient = 0.00258256
GAMG:  Solving for p, Initial residual = 0.002636, Final residual = 0.000216462, No Iterations 13
time step continuity errors : sum local = 3.27982e-10, global = -5.02467e-20, cumulative = -2.4613e-17
Pressure gradient source: uncorrected Ubar = 1, pressure gradient = 0.00258255
smoothSolver:  Solving for omega, Initial residual = 8.92584e-06, Final residual = 8.92584e-06, No Iterations 0
smoothSolver:  Solving for k, Initial residual = 3.28008e-05, Final residual = 9.38655e-06, No Iterations 3
ExecutionTime = 1.2368 s  ClockTime = 2 s

Time = 575s

smoothSolver:  Solving for Ux, Initial residual = 6.74293e-06, Final residual = 6.74293e-06, No Iterations 0
smoothSolver:  Solving for Uy, Initial residual = 0.0133779, Final residual = 0.00131247, No Iterations 3
Pressure gradient source: uncorrected Ubar = 1, pressure gradient = 0.00258255
GAMG:  Solving for p, Initial residual = 0.00226894, Final residual = 0.000174488, No Iterations 11
time step continuity errors : sum local = 2.80911e-10, global = -1.67852e-18, cumulative = -2.62915e-17
Pressure gradient source: uncorrected Ubar = 1, pressure gradient = 0.00258254
smoothSolver:  Solving for omega, Initial residual = 8.93176e-06, Final residual = 8.93176e-06, No Iterations 0
smoothSolver:  Solving for k, Initial residual = 3.04599e-05, Final residual = 8.20022e-06, No Iterations 3
ExecutionTime = 1.23904 s  ClockTime = 2 s

Time = 576s

smoothSolver:  Solving for Ux, Initial residual = 6.63586e-06, Final residual = 6.63586e-06, No Iterations 0
smoothSolver:  Solving for Uy, Initial residual = 0.0121619, Final residual = 0.00110806, No Iterations 3
Pressure gradient source: uncorrected Ubar = 1, pressure gradient = 0.00258254
GAMG:  Solving for p, Initial residual = 0.00181929, Final residual = 0.000175002, No Iterations 11
time step continuity errors : sum local = 2.86835e-10, global = -4.36645e-18, cumulative = -3.0658e-17
Pressure gradient source: uncorrected Ubar = 1, pressure gradient = 0.00258253
smoothSolver:  Solving for omega, Initial residual = 8.937e-06, Final residual = 8.937e-06, No Iterations 0
smoothSolver:  Solving for k, Initial residual = 3.22718e-05, Final residual = 9.10319e-06, No Iterations 3
ExecutionTime = 1.24121 s  ClockTime = 2 s

Time = 577s

smoothSolver:  Solving for Ux, Initial residual = 6.52873e-06, Final residual = 6.52873e-06, No Iterations 0
smoothSolver:  Solving for Uy, Initial residual = 0.01249, Final residual = 0.00121731, No Iterations 3
Pressure gradient source: uncorrected Ubar = 1, pressure gradient = 0.00258253
GAMG:  Solving for p, Initial residual = 0.00194738, Final residual = 0.00011968, No Iterations 4
time step continuity errors : sum local = 2.1774e-10, global = -2.39819e-18, cumulative = -3.30561e-17
Pressure gradient source: uncorrected Ubar = 1, pressure gradient = 0.00258252
smoothSolver:  Solving for omega, Initial residual = 8.9418e-06, Final residual = 8.9418e-06, No Iterations 0
smoothSolver:  Solving for k, Initial residual = 3.15488e-05, Final residual = 8.81878e-06, No Iterations 3
ExecutionTime = 1.2431 s  ClockTime = 2 s

Time = 578s

smoothSolver:  Solving for Ux, Initial residual = 6.42411e-06, Final residual = 6.42411e-06, No Iterations 0
smoothSolver:  Solving for Uy, Initial residual = 0.00953673, Final residual = 0.000870478, No Iterations 3
Pressure gradient source: uncorrected Ubar = 1, pressure gradient = 0.00258252
GAMG:  Solving for p, Initial residual = 0.00165385, Final residual = 0.000155589, No Iterations 4
time step continuity errors : sum local = 2.77218e-10, global = -8.57909e-18, cumulative = -4.16352e-17
Pressure gradient source: uncorrected Ubar = 1, pressure gradient = 0.0025825
smoothSolver:  Solving for omega, Initial residual = 8.94594e-06, Final residual = 8.94594e-06, No Iterations 0
smoothSolver:  Solving for k, Initial residual = 3.32517e-05, Final residual = 9.75944e-06, No Iterations 3
ExecutionTime = 1.24501 s  ClockTime = 2 s


SIMPLE solution converged in 578 iterations

End

