/*---------------------------------------------------------------------------*\
  =========                 |
  \\      /  F ield         | OpenFOAM: The Open Source CFD Toolbox
   \\    /   O peration     | Website:  https://openfoam.org
    \\  /    A nd           | Version:  10
     \\/     M anipulation  |
\*---------------------------------------------------------------------------*/
Build  : 10-e450dce21ea5
Exec   : blockMesh
Date   : Feb 20 2023
Time   : 14:18:55
Host   : "w530-R9YK46P"
PID    : 19122
I/O    : uncollated
Case   : /home/jdmezazeron/gitDanielMezaZ/turbulenceVisualized/Data/SimulationFiles/K41_Re10353
nProcs : 1
sigFpe : Enabling floating point exception trapping (FOAM_SIGFPE).
fileModificationChecking : Monitoring run-time modified files using timeStampMaster (fileModificationSkew 10)
allowSystemOperations : Allowing user-supplied system call operations

// * * * * * * * * * * * * * * * * * * * * * * * * * * * * * * * * * * * * * //
Create time

Deleting polyMesh directory
    "/home/jdmezazeron/gitDanielMezaZ/turbulenceVisualized/Data/SimulationFiles/K41_Re10353/constant/polyMesh"
Reading "blockMeshDict"

Creating block mesh from
    "system/blockMeshDict"
Creating block edges
No non-planar block faces defined
Creating topology blocks
Creating topology patches

Creating block mesh topology

Check topology

	Basic statistics
		Number of internal faces : 0
		Number of boundary faces : 6
		Number of defined boundary faces : 6
		Number of undefined boundary faces : 0
	Checking patch -> block consistency

Creating block offsets
Creating merge list .

Creating polyMesh from blockMesh
Creating patches
Creating cells
Creating points with scale 1
    Block 0 cell size :
        i : 0.5
        j : 0.00461374 .. 0.018455
        k : 2

Detected cyclic patches; ordering boundary faces

Writing polyMesh
----------------
Mesh Information
----------------
  boundingBox: (-1 0 -1) (1 1 1)
  nPoints: 1010
  nCells: 400
  nFaces: 1704
  nInternalFaces: 696
----------------
Patches
----------------
  patch 0 (start: 696 size: 100) name: inlet
  patch 1 (start: 796 size: 100) name: outlet
  patch 2 (start: 896 size: 4) name: fixedWalls-bottom
  patch 3 (start: 900 size: 4) name: fixedWalls-top
  patch 4 (start: 904 size: 800) name: frontAndBack

End

/*---------------------------------------------------------------------------*\
  =========                 |
  \\      /  F ield         | OpenFOAM: The Open Source CFD Toolbox
   \\    /   O peration     | Website:  https://openfoam.org
    \\  /    A nd           | Version:  10
     \\/     M anipulation  |
\*---------------------------------------------------------------------------*/
Build  : 10-e450dce21ea5
Exec   : simpleFoam
Date   : Feb 20 2023
Time   : 14:18:55
Host   : "w530-R9YK46P"
PID    : 19123
I/O    : uncollated
Case   : /home/jdmezazeron/gitDanielMezaZ/turbulenceVisualized/Data/SimulationFiles/K41_Re10353
nProcs : 1
sigFpe : Enabling floating point exception trapping (FOAM_SIGFPE).
fileModificationChecking : Monitoring run-time modified files using timeStampMaster (fileModificationSkew 10)
allowSystemOperations : Allowing user-supplied system call operations

// * * * * * * * * * * * * * * * * * * * * * * * * * * * * * * * * * * * * * //
Create time

Create mesh for time = 0


SIMPLE: Convergence criteria found
        U: tolerance 0.0001
        p: tolerance 0.01
        omega: tolerance 0.0001

Reading field p

Reading field U

Reading/calculating face flux field phi

Selecting viscosity model Newtonian
Selecting turbulence model type RAS
Selecting RAS turbulence model kOmegaSST
Selecting patchDistMethod meshWave
RAS
{
    RASModel        kOmegaSST;
    turbulence      on;
    printCoeffs     on;
    alphaK1         0.85;
    alphaK2         1;
    alphaOmega1     0.5;
    alphaOmega2     0.856;
    gamma1          0.555556;
    gamma2          0.44;
    beta1           0.075;
    beta2           0.0828;
    betaStar        0.09;
    a1              0.31;
    b1              1;
    c1              10;
    F3              false;
}

No MRF models present

--> FOAM Warning : Creating fvModels from "system/fvOptions" rather than constant/fvModels
No fvModels present
--> FOAM Warning : Creating fvConstraints from "system/fvOptions"

Selecting finite volume constraint type meanVelocityForce
    Name: momentumSource
    - selecting all cells
    - selected 400 cell(s) with volume 4
    Initial pressure gradient = 0


Starting time loop

turbulenceFields stressComponents: storing fields:
    R

Time = 1s

smoothSolver:  Solving for Ux, Initial residual = 0, Final residual = 0, No Iterations 0
smoothSolver:  Solving for Uy, Initial residual = 0, Final residual = 0, No Iterations 0
Pressure gradient source: uncorrected Ubar = 0, pressure gradient = 1020.08
GAMG:  Solving for p, Initial residual = 0.999996, Final residual = 0.0915067, No Iterations 3
time step continuity errors : sum local = 1.05405e-16, global = -5.01665e-18, cumulative = -5.01665e-18
Pressure gradient source: uncorrected Ubar = 0.884653, pressure gradient = 117.663
smoothSolver:  Solving for omega, Initial residual = 0.267189, Final residual = 0.0161432, No Iterations 3
smoothSolver:  Solving for k, Initial residual = 1, Final residual = 0.0795066, No Iterations 5
ExecutionTime = 0.014409 s  ClockTime = 0 s

Time = 2s

smoothSolver:  Solving for Ux, Initial residual = 0.994272, Final residual = 0.0987291, No Iterations 6
smoothSolver:  Solving for Uy, Initial residual = 1, Final residual = 0.0796681, No Iterations 5
Pressure gradient source: uncorrected Ubar = 75.8699, pressure gradient = -871.724
GAMG:  Solving for p, Initial residual = 1, Final residual = 0.0940099, No Iterations 15
time step continuity errors : sum local = 0.0660439, global = 1.44199e-17, cumulative = 9.40324e-18
Pressure gradient source: uncorrected Ubar = 10.7678, pressure gradient = -11.4157
smoothSolver:  Solving for omega, Initial residual = 0.142568, Final residual = 0.0127622, No Iterations 1
smoothSolver:  Solving for k, Initial residual = 0.820612, Final residual = 0.035089, No Iterations 1
ExecutionTime = 0.017486 s  ClockTime = 0 s

Time = 3s

smoothSolver:  Solving for Ux, Initial residual = 0.291202, Final residual = 0.0207168, No Iterations 6
smoothSolver:  Solving for Uy, Initial residual = 0.662883, Final residual = 0.018557, No Iterations 2
Pressure gradient source: uncorrected Ubar = -1.47738, pressure gradient = 86.3115
GAMG:  Solving for p, Initial residual = 0.178861, Final residual = 0.017105, No Iterations 8
time step continuity errors : sum local = 0.0299997, global = -3.01137e-17, cumulative = -2.07105e-17
Pressure gradient source: uncorrected Ubar = 0.697971, pressure gradient = 0.498631
smoothSolver:  Solving for omega, Initial residual = 0.392758, Final residual = 0.00811159, No Iterations 1
smoothSolver:  Solving for k, Initial residual = 0.294152, Final residual = 0.00788486, No Iterations 2
ExecutionTime = 0.020167 s  ClockTime = 0 s

Time = 4s

smoothSolver:  Solving for Ux, Initial residual = 0.0634891, Final residual = 0.00473435, No Iterations 4
smoothSolver:  Solving for Uy, Initial residual = 0.389858, Final residual = 0.0326726, No Iterations 2
Pressure gradient source: uncorrected Ubar = 0.975321, pressure gradient = 1.05087
GAMG:  Solving for p, Initial residual = 0.086113, Final residual = 0.00750677, No Iterations 9
time step continuity errors : sum local = 0.0274932, global = 5.69613e-17, cumulative = 3.62508e-17
Pressure gradient source: uncorrected Ubar = 0.995562, pressure gradient = 0.597952
smoothSolver:  Solving for omega, Initial residual = 0.0569058, Final residual = 0.00229054, No Iterations 2
smoothSolver:  Solving for k, Initial residual = 0.673874, Final residual = 0.0380819, No Iterations 2
ExecutionTime = 0.022849 s  ClockTime = 0 s

Time = 5s

smoothSolver:  Solving for Ux, Initial residual = 0.0603415, Final residual = 0.00380103, No Iterations 5
smoothSolver:  Solving for Uy, Initial residual = 0.592804, Final residual = 0.0451426, No Iterations 2
Pressure gradient source: uncorrected Ubar = 0.843004, pressure gradient = 4.08495
GAMG:  Solving for p, Initial residual = 0.0803734, Final residual = 0.00671683, No Iterations 8
time step continuity errors : sum local = 0.0290622, global = 1.18957e-17, cumulative = 4.81465e-17
Pressure gradient source: uncorrected Ubar = 0.979796, pressure gradient = 1.0467
smoothSolver:  Solving for omega, Initial residual = 0.139563, Final residual = 0.00316367, No Iterations 2
smoothSolver:  Solving for k, Initial residual = 0.781874, Final residual = 0.0664848, No Iterations 1
ExecutionTime = 0.02548 s  ClockTime = 0 s

Time = 6s

smoothSolver:  Solving for Ux, Initial residual = 0.0775653, Final residual = 0.00482775, No Iterations 5
smoothSolver:  Solving for Uy, Initial residual = 0.736841, Final residual = 0.0550862, No Iterations 2
Pressure gradient source: uncorrected Ubar = 0.97044, pressure gradient = 1.78508
GAMG:  Solving for p, Initial residual = 0.163136, Final residual = 0.0155666, No Iterations 13
time step continuity errors : sum local = 0.0425715, global = -1.90372e-16, cumulative = -1.42226e-16
Pressure gradient source: uncorrected Ubar = 0.995945, pressure gradient = 1.14799
smoothSolver:  Solving for omega, Initial residual = 0.258016, Final residual = 0.00694883, No Iterations 2
smoothSolver:  Solving for k, Initial residual = 0.457998, Final residual = 0.0332821, No Iterations 1
ExecutionTime = 0.028375 s  ClockTime = 0 s

Time = 7s

smoothSolver:  Solving for Ux, Initial residual = 0.0910018, Final residual = 0.00677736, No Iterations 4
smoothSolver:  Solving for Uy, Initial residual = 0.560045, Final residual = 0.0441826, No Iterations 2
Pressure gradient source: uncorrected Ubar = 1.027, pressure gradient = 0.258388
GAMG:  Solving for p, Initial residual = 0.202408, Final residual = 0.0171354, No Iterations 10
time step continuity errors : sum local = 0.0664328, global = -2.37271e-16, cumulative = -3.79497e-16
Pressure gradient source: uncorrected Ubar = 1.00175, pressure gradient = 1.09045
smoothSolver:  Solving for omega, Initial residual = 0.37438, Final residual = 0.00604006, No Iterations 2
bounding omega, min: -0.652415 max: 2910.3 average: 146.733
smoothSolver:  Solving for k, Initial residual = 0.406123, Final residual = 0.00324796, No Iterations 2
ExecutionTime = 0.031251 s  ClockTime = 0 s

Time = 8s

smoothSolver:  Solving for Ux, Initial residual = 0.100768, Final residual = 0.00696386, No Iterations 4
smoothSolver:  Solving for Uy, Initial residual = 0.575364, Final residual = 0.0483752, No Iterations 2
Pressure gradient source: uncorrected Ubar = 0.89655, pressure gradient = 5.24265
GAMG:  Solving for p, Initial residual = 0.18158, Final residual = 0.0171626, No Iterations 11
time step continuity errors : sum local = 0.092171, global = 3.87602e-17, cumulative = -3.40736e-16
Pressure gradient source: uncorrected Ubar = 0.990492, pressure gradient = 1.47206
smoothSolver:  Solving for omega, Initial residual = 0.299252, Final residual = 0.00210296, No Iterations 2
smoothSolver:  Solving for k, Initial residual = 0.304618, Final residual = 0.00300244, No Iterations 2
ExecutionTime = 0.034038 s  ClockTime = 0 s

Time = 9s

smoothSolver:  Solving for Ux, Initial residual = 0.121024, Final residual = 0.00734247, No Iterations 4
smoothSolver:  Solving for Uy, Initial residual = 0.613687, Final residual = 0.0538119, No Iterations 2
Pressure gradient source: uncorrected Ubar = 0.928262, pressure gradient = 4.62374
GAMG:  Solving for p, Initial residual = 0.250435, Final residual = 0.0237349, No Iterations 9
time step continuity errors : sum local = 0.0960496, global = 4.90059e-17, cumulative = -2.91731e-16
Pressure gradient source: uncorrected Ubar = 0.992279, pressure gradient = 1.81125
smoothSolver:  Solving for omega, Initial residual = 0.262539, Final residual = 0.00473913, No Iterations 2
smoothSolver:  Solving for k, Initial residual = 0.269695, Final residual = 0.00666376, No Iterations 2
ExecutionTime = 0.036737 s  ClockTime = 0 s

Time = 10s

smoothSolver:  Solving for Ux, Initial residual = 0.0993694, Final residual = 0.00640152, No Iterations 4
smoothSolver:  Solving for Uy, Initial residual = 0.594228, Final residual = 0.0581198, No Iterations 2
Pressure gradient source: uncorrected Ubar = 0.852071, pressure gradient = 8.95755
GAMG:  Solving for p, Initial residual = 0.344748, Final residual = 0.0336553, No Iterations 9
time step continuity errors : sum local = 0.10208, global = 5.29091e-17, cumulative = -2.38821e-16
Pressure gradient source: uncorrected Ubar = 0.973553, pressure gradient = 3.0889
smoothSolver:  Solving for omega, Initial residual = 0.202019, Final residual = 0.00473878, No Iterations 2
smoothSolver:  Solving for k, Initial residual = 0.22554, Final residual = 0.0119736, No Iterations 2
ExecutionTime = 0.039461 s  ClockTime = 0 s

Time = 11s

smoothSolver:  Solving for Ux, Initial residual = 0.0850755, Final residual = 0.00829991, No Iterations 3
smoothSolver:  Solving for Uy, Initial residual = 0.464377, Final residual = 0.016534, No Iterations 3
Pressure gradient source: uncorrected Ubar = 0.902788, pressure gradient = 8.55556
GAMG:  Solving for p, Initial residual = 0.296978, Final residual = 0.0226742, No Iterations 10
time step continuity errors : sum local = 0.0840296, global = 4.85689e-17, cumulative = -1.90253e-16
Pressure gradient source: uncorrected Ubar = 0.984215, pressure gradient = 3.97654
smoothSolver:  Solving for omega, Initial residual = 0.202451, Final residual = 0.00756776, No Iterations 2
smoothSolver:  Solving for k, Initial residual = 0.178411, Final residual = 0.0177675, No Iterations 2
ExecutionTime = 0.042199 s  ClockTime = 0 s

Time = 12s

smoothSolver:  Solving for Ux, Initial residual = 0.0525848, Final residual = 0.00515748, No Iterations 3
smoothSolver:  Solving for Uy, Initial residual = 0.392942, Final residual = 0.0170352, No Iterations 3
Pressure gradient source: uncorrected Ubar = 0.885453, pressure gradient = 11.3514
GAMG:  Solving for p, Initial residual = 0.245877, Final residual = 0.0156303, No Iterations 8
time step continuity errors : sum local = 0.0775001, global = -6.50521e-17, cumulative = -2.55305e-16
Pressure gradient source: uncorrected Ubar = 0.984937, pressure gradient = 4.94631
smoothSolver:  Solving for omega, Initial residual = 0.150519, Final residual = 0.00625452, No Iterations 2
smoothSolver:  Solving for k, Initial residual = 0.191728, Final residual = 0.00964608, No Iterations 3
ExecutionTime = 0.044846 s  ClockTime = 0 s

Time = 13s

smoothSolver:  Solving for Ux, Initial residual = 0.0350967, Final residual = 0.00252765, No Iterations 4
smoothSolver:  Solving for Uy, Initial residual = 0.393249, Final residual = 0.0178856, No Iterations 3
Pressure gradient source: uncorrected Ubar = 0.956183, pressure gradient = 8.20967
GAMG:  Solving for p, Initial residual = 0.254329, Final residual = 0.0243112, No Iterations 10
time step continuity errors : sum local = 0.113767, global = -8.03394e-17, cumulative = -3.35644e-16
Pressure gradient source: uncorrected Ubar = 0.994882, pressure gradient = 5.3275
smoothSolver:  Solving for omega, Initial residual = 0.144143, Final residual = 0.0113209, No Iterations 2
smoothSolver:  Solving for k, Initial residual = 0.1341, Final residual = 0.0100351, No Iterations 3
ExecutionTime = 0.047598 s  ClockTime = 0 s

Time = 14s

smoothSolver:  Solving for Ux, Initial residual = 0.0262016, Final residual = 0.00205036, No Iterations 4
smoothSolver:  Solving for Uy, Initial residual = 0.419423, Final residual = 0.0236553, No Iterations 3
Pressure gradient source: uncorrected Ubar = 0.963018, pressure gradient = 8.59008
GAMG:  Solving for p, Initial residual = 0.168832, Final residual = 0.0152775, No Iterations 10
time step continuity errors : sum local = 0.137621, global = -1.08058e-16, cumulative = -4.43702e-16
Pressure gradient source: uncorrected Ubar = 0.993744, pressure gradient = 5.8794
smoothSolver:  Solving for omega, Initial residual = 0.131484, Final residual = 0.010812, No Iterations 2
smoothSolver:  Solving for k, Initial residual = 0.0990117, Final residual = 0.00851962, No Iterations 3
ExecutionTime = 0.050359 s  ClockTime = 0 s

Time = 15s

smoothSolver:  Solving for Ux, Initial residual = 0.0224321, Final residual = 0.00178282, No Iterations 4
smoothSolver:  Solving for Uy, Initial residual = 0.437654, Final residual = 0.0239027, No Iterations 3
Pressure gradient source: uncorrected Ubar = 0.954877, pressure gradient = 10.8605
GAMG:  Solving for p, Initial residual = 0.295119, Final residual = 0.0244933, No Iterations 8
time step continuity errors : sum local = 0.15499, global = -2.10335e-17, cumulative = -4.64735e-16
Pressure gradient source: uncorrected Ubar = 0.986736, pressure gradient = 7.34356
smoothSolver:  Solving for omega, Initial residual = 0.100059, Final residual = 0.00511095, No Iterations 3
smoothSolver:  Solving for k, Initial residual = 0.0819472, Final residual = 0.00490519, No Iterations 4
ExecutionTime = 0.053035 s  ClockTime = 0 s

Time = 16s

smoothSolver:  Solving for Ux, Initial residual = 0.0196941, Final residual = 0.00169288, No Iterations 4
smoothSolver:  Solving for Uy, Initial residual = 0.380972, Final residual = 0.017477, No Iterations 3
Pressure gradient source: uncorrected Ubar = 1.01454, pressure gradient = 5.53559
GAMG:  Solving for p, Initial residual = 0.16809, Final residual = 0.0151084, No Iterations 11
time step continuity errors : sum local = 0.131019, global = 2.0505e-17, cumulative = -4.4423e-16
Pressure gradient source: uncorrected Ubar = 0.99991, pressure gradient = 7.35478
smoothSolver:  Solving for omega, Initial residual = 0.0940708, Final residual = 0.00514954, No Iterations 3
smoothSolver:  Solving for k, Initial residual = 0.074049, Final residual = 0.00554899, No Iterations 4
ExecutionTime = 0.055876 s  ClockTime = 0 s

Time = 17s

smoothSolver:  Solving for Ux, Initial residual = 0.0164251, Final residual = 0.00161477, No Iterations 4
smoothSolver:  Solving for Uy, Initial residual = 0.311456, Final residual = 0.0232128, No Iterations 3
Pressure gradient source: uncorrected Ubar = 1.00954, pressure gradient = 6.0399
GAMG:  Solving for p, Initial residual = 0.0574335, Final residual = 0.00476603, No Iterations 4
time step continuity errors : sum local = 0.146656, global = 1.17853e-16, cumulative = -3.26378e-16
Pressure gradient source: uncorrected Ubar = 0.99642, pressure gradient = 7.84824
smoothSolver:  Solving for omega, Initial residual = 0.076887, Final residual = 0.00598196, No Iterations 3
smoothSolver:  Solving for k, Initial residual = 0.0655373, Final residual = 0.00544689, No Iterations 4
ExecutionTime = 0.058384 s  ClockTime = 0 s

Time = 18s

smoothSolver:  Solving for Ux, Initial residual = 0.0152786, Final residual = 0.000988472, No Iterations 5
smoothSolver:  Solving for Uy, Initial residual = 0.345102, Final residual = 0.0229392, No Iterations 3
Pressure gradient source: uncorrected Ubar = 1.02628, pressure gradient = 3.70342
GAMG:  Solving for p, Initial residual = 0.0861258, Final residual = 0.00665453, No Iterations 9
time step continuity errors : sum local = 0.147155, global = -3.52366e-17, cumulative = -3.61614e-16
Pressure gradient source: uncorrected Ubar = 1.0011, pressure gradient = 7.67509
smoothSolver:  Solving for omega, Initial residual = 0.0676614, Final residual = 0.00646573, No Iterations 3
smoothSolver:  Solving for k, Initial residual = 0.0582979, Final residual = 0.0056593, No Iterations 4
ExecutionTime = 0.06114 s  ClockTime = 0 s

Time = 19s

smoothSolver:  Solving for Ux, Initial residual = 0.0137246, Final residual = 0.000945471, No Iterations 5
smoothSolver:  Solving for Uy, Initial residual = 0.275228, Final residual = 0.0195332, No Iterations 3
Pressure gradient source: uncorrected Ubar = 1.01033, pressure gradient = 5.81482
GAMG:  Solving for p, Initial residual = 0.101045, Final residual = 0.00737955, No Iterations 8
time step continuity errors : sum local = 0.134221, global = -6.76542e-17, cumulative = -4.29268e-16
Pressure gradient source: uncorrected Ubar = 0.999627, pressure gradient = 7.7423
smoothSolver:  Solving for omega, Initial residual = 0.0570642, Final residual = 0.00366057, No Iterations 4
smoothSolver:  Solving for k, Initial residual = 0.0535021, Final residual = 0.00349393, No Iterations 5
ExecutionTime = 0.063838 s  ClockTime = 0 s

Time = 20s

smoothSolver:  Solving for Ux, Initial residual = 0.012687, Final residual = 0.000912333, No Iterations 5
smoothSolver:  Solving for Uy, Initial residual = 0.221434, Final residual = 0.0174002, No Iterations 3
Pressure gradient source: uncorrected Ubar = 1.00515, pressure gradient = 6.71658
GAMG:  Solving for p, Initial residual = 0.0964064, Final residual = 0.00704439, No Iterations 8
time step continuity errors : sum local = 0.11004, global = 2.02529e-16, cumulative = -2.26739e-16
Pressure gradient source: uncorrected Ubar = 0.998432, pressure gradient = 8.05428
smoothSolver:  Solving for omega, Initial residual = 0.0511507, Final residual = 0.00392855, No Iterations 4
smoothSolver:  Solving for k, Initial residual = 0.0485956, Final residual = 0.00348028, No Iterations 5
ExecutionTime = 0.066558 s  ClockTime = 0 s

Time = 21s

smoothSolver:  Solving for Ux, Initial residual = 0.0119418, Final residual = 0.000887036, No Iterations 5
smoothSolver:  Solving for Uy, Initial residual = 0.250888, Final residual = 0.0187557, No Iterations 3
Pressure gradient source: uncorrected Ubar = 1.01101, pressure gradient = 5.69614
GAMG:  Solving for p, Initial residual = 0.101262, Final residual = 0.00938035, No Iterations 9
time step continuity errors : sum local = 0.100776, global = 3.01273e-17, cumulative = -1.96612e-16
Pressure gradient source: uncorrected Ubar = 1.00056, pressure gradient = 7.93342
smoothSolver:  Solving for omega, Initial residual = 0.0495498, Final residual = 0.00422267, No Iterations 4
smoothSolver:  Solving for k, Initial residual = 0.0448226, Final residual = 0.0035653, No Iterations 5
ExecutionTime = 0.06936 s  ClockTime = 0 s

Time = 22s

smoothSolver:  Solving for Ux, Initial residual = 0.011197, Final residual = 0.000854115, No Iterations 5
smoothSolver:  Solving for Uy, Initial residual = 0.262817, Final residual = 0.0238479, No Iterations 3
Pressure gradient source: uncorrected Ubar = 1.00309, pressure gradient = 7.20586
GAMG:  Solving for p, Initial residual = 0.135192, Final residual = 0.0118284, No Iterations 10
time step continuity errors : sum local = 0.0745805, global = -3.27565e-17, cumulative = -2.29369e-16
Pressure gradient source: uncorrected Ubar = 1.00081, pressure gradient = 7.74278
smoothSolver:  Solving for omega, Initial residual = 0.0485036, Final residual = 0.00435186, No Iterations 4
smoothSolver:  Solving for k, Initial residual = 0.0412014, Final residual = 0.00351997, No Iterations 5
ExecutionTime = 0.072143 s  ClockTime = 0 s

Time = 23s

smoothSolver:  Solving for Ux, Initial residual = 0.0106116, Final residual = 0.000822195, No Iterations 5
smoothSolver:  Solving for Uy, Initial residual = 0.228242, Final residual = 0.0122381, No Iterations 4
Pressure gradient source: uncorrected Ubar = 0.991312, pressure gradient = 9.99943
GAMG:  Solving for p, Initial residual = 0.0701406, Final residual = 0.00630734, No Iterations 9
time step continuity errors : sum local = 0.0752611, global = 1.92717e-17, cumulative = -2.10097e-16
Pressure gradient source: uncorrected Ubar = 0.998018, pressure gradient = 8.25755
smoothSolver:  Solving for omega, Initial residual = 0.048267, Final residual = 0.00450096, No Iterations 4
smoothSolver:  Solving for k, Initial residual = 0.037619, Final residual = 0.00336025, No Iterations 5
ExecutionTime = 0.074909 s  ClockTime = 0 s

Time = 24s

smoothSolver:  Solving for Ux, Initial residual = 0.0102168, Final residual = 0.000802504, No Iterations 5
smoothSolver:  Solving for Uy, Initial residual = 0.196226, Final residual = 0.0106939, No Iterations 4
Pressure gradient source: uncorrected Ubar = 0.999372, pressure gradient = 8.43524
GAMG:  Solving for p, Initial residual = 0.0324717, Final residual = 0.00255959, No Iterations 7
time step continuity errors : sum local = 0.0654645, global = -7.12456e-17, cumulative = -2.81343e-16
Pressure gradient source: uncorrected Ubar = 1.00043, pressure gradient = 8.13464
smoothSolver:  Solving for omega, Initial residual = 0.0461933, Final residual = 0.00451149, No Iterations 4
smoothSolver:  Solving for k, Initial residual = 0.0347231, Final residual = 0.00324787, No Iterations 5
ExecutionTime = 0.077591 s  ClockTime = 0 s

Time = 25s

smoothSolver:  Solving for Ux, Initial residual = 0.00981007, Final residual = 0.00077846, No Iterations 5
smoothSolver:  Solving for Uy, Initial residual = 0.183417, Final residual = 0.0104248, No Iterations 4
Pressure gradient source: uncorrected Ubar = 0.996438, pressure gradient = 9.23085
GAMG:  Solving for p, Initial residual = 0.0212464, Final residual = 0.00168197, No Iterations 9
time step continuity errors : sum local = 0.0573531, global = -1.11898e-16, cumulative = -3.93241e-16
Pressure gradient source: uncorrected Ubar = 0.99942, pressure gradient = 8.31325
smoothSolver:  Solving for omega, Initial residual = 0.0456765, Final residual = 0.00282865, No Iterations 5
smoothSolver:  Solving for k, Initial residual = 0.0322785, Final residual = 0.0031524, No Iterations 5
ExecutionTime = 0.080361 s  ClockTime = 0 s

Time = 26s

smoothSolver:  Solving for Ux, Initial residual = 0.00947079, Final residual = 0.000758471, No Iterations 5
smoothSolver:  Solving for Uy, Initial residual = 0.163154, Final residual = 0.0105206, No Iterations 4
Pressure gradient source: uncorrected Ubar = 1.00485, pressure gradient = 6.71232
GAMG:  Solving for p, Initial residual = 0.014805, Final residual = 0.0011064, No Iterations 9
time step continuity errors : sum local = 0.0458102, global = 5.67072e-17, cumulative = -3.36533e-16
Pressure gradient source: uncorrected Ubar = 1.00098, pressure gradient = 7.99147
smoothSolver:  Solving for omega, Initial residual = 0.0455854, Final residual = 0.00286872, No Iterations 5
smoothSolver:  Solving for k, Initial residual = 0.0300728, Final residual = 0.00192769, No Iterations 6
ExecutionTime = 0.083135 s  ClockTime = 0 s

Time = 27s

smoothSolver:  Solving for Ux, Initial residual = 0.00912608, Final residual = 0.000736973, No Iterations 5
smoothSolver:  Solving for Uy, Initial residual = 0.145946, Final residual = 0.0103572, No Iterations 4
Pressure gradient source: uncorrected Ubar = 1.00334, pressure gradient = 6.80372
GAMG:  Solving for p, Initial residual = 0.0102407, Final residual = 0.00100276, No Iterations 7
time step continuity errors : sum local = 0.0450679, global = -7.15573e-18, cumulative = -3.43689e-16
Pressure gradient source: uncorrected Ubar = 1.00056, pressure gradient = 7.79411
smoothSolver:  Solving for omega, Initial residual = 0.0445023, Final residual = 0.00299213, No Iterations 5
smoothSolver:  Solving for k, Initial residual = 0.0278987, Final residual = 0.00183769, No Iterations 6
ExecutionTime = 0.085811 s  ClockTime = 0 s

Time = 28s

smoothSolver:  Solving for Ux, Initial residual = 0.00883907, Final residual = 0.000718985, No Iterations 5
smoothSolver:  Solving for Uy, Initial residual = 0.125168, Final residual = 0.00918314, No Iterations 4
Pressure gradient source: uncorrected Ubar = 1.00375, pressure gradient = 6.3796
GAMG:  Solving for p, Initial residual = 0.00779896, Final residual = 0.000769335, No Iterations 7
time step continuity errors : sum local = 0.0352156, global = 3.58854e-17, cumulative = -3.07804e-16
Pressure gradient source: uncorrected Ubar = 1.00056, pressure gradient = 7.58162
smoothSolver:  Solving for omega, Initial residual = 0.0423594, Final residual = 0.00302991, No Iterations 5
smoothSolver:  Solving for k, Initial residual = 0.0259083, Final residual = 0.0017501, No Iterations 6
ExecutionTime = 0.088511 s  ClockTime = 0 s

Time = 29s

smoothSolver:  Solving for Ux, Initial residual = 0.00856456, Final residual = 0.000701146, No Iterations 5
smoothSolver:  Solving for Uy, Initial residual = 0.111121, Final residual = 0.00886442, No Iterations 4
Pressure gradient source: uncorrected Ubar = 1.00413, pressure gradient = 5.90948
GAMG:  Solving for p, Initial residual = 0.00626969, Final residual = 0.000612177, No Iterations 7
time step continuity errors : sum local = 0.0272113, global = -5.00901e-17, cumulative = -3.57894e-16
Pressure gradient source: uncorrected Ubar = 1.00052, pressure gradient = 7.37202
smoothSolver:  Solving for omega, Initial residual = 0.0419873, Final residual = 0.00327306, No Iterations 5
smoothSolver:  Solving for k, Initial residual = 0.0241169, Final residual = 0.00167338, No Iterations 6
ExecutionTime = 0.091188 s  ClockTime = 0 s

Time = 30s

smoothSolver:  Solving for Ux, Initial residual = 0.00832559, Final residual = 0.000686217, No Iterations 5
smoothSolver:  Solving for Uy, Initial residual = 0.0943375, Final residual = 0.00821462, No Iterations 4
Pressure gradient source: uncorrected Ubar = 1.0044, pressure gradient = 5.50535
GAMG:  Solving for p, Initial residual = 0.00526099, Final residual = 0.000492693, No Iterations 6
time step continuity errors : sum local = 0.0205969, global = 9.18844e-17, cumulative = -2.6601e-16
Pressure gradient source: uncorrected Ubar = 1.00051, pressure gradient = 7.15427
smoothSolver:  Solving for omega, Initial residual = 0.0396314, Final residual = 0.00319944, No Iterations 5
smoothSolver:  Solving for k, Initial residual = 0.0226302, Final residual = 0.00161334, No Iterations 6
ExecutionTime = 0.093818 s  ClockTime = 0 s

Time = 31s

smoothSolver:  Solving for Ux, Initial residual = 0.00808407, Final residual = 0.00066983, No Iterations 5
smoothSolver:  Solving for Uy, Initial residual = 0.0787302, Final residual = 0.00756421, No Iterations 4
Pressure gradient source: uncorrected Ubar = 1.00196, pressure gradient = 6.26271
GAMG:  Solving for p, Initial residual = 0.00464859, Final residual = 0.000361914, No Iterations 6
time step continuity errors : sum local = 0.0131295, global = 2.51806e-17, cumulative = -2.40829e-16
Pressure gradient source: uncorrected Ubar = 1.00013, pressure gradient = 7.09453
smoothSolver:  Solving for omega, Initial residual = 0.0394776, Final residual = 0.0034857, No Iterations 5
smoothSolver:  Solving for k, Initial residual = 0.0211789, Final residual = 0.00154486, No Iterations 6
ExecutionTime = 0.096444 s  ClockTime = 0 s

Time = 32s

smoothSolver:  Solving for Ux, Initial residual = 0.0078782, Final residual = 0.000653647, No Iterations 5
smoothSolver:  Solving for Uy, Initial residual = 0.0695023, Final residual = 0.00660471, No Iterations 4
Pressure gradient source: uncorrected Ubar = 1.00219, pressure gradient = 6.05144
GAMG:  Solving for p, Initial residual = 0.0040798, Final residual = 0.000138409, No Iterations 5
time step continuity errors : sum local = 0.00432266, global = 1.03324e-16, cumulative = -1.37504e-16
Pressure gradient source: uncorrected Ubar = 1.00012, pressure gradient = 7.03863
smoothSolver:  Solving for omega, Initial residual = 0.0370625, Final residual = 0.00330619, No Iterations 5
smoothSolver:  Solving for k, Initial residual = 0.0197689, Final residual = 0.00146936, No Iterations 6
ExecutionTime = 0.099053 s  ClockTime = 0 s

Time = 33s

smoothSolver:  Solving for Ux, Initial residual = 0.00763544, Final residual = 0.000628424, No Iterations 5
smoothSolver:  Solving for Uy, Initial residual = 0.064885, Final residual = 0.00638576, No Iterations 4
Pressure gradient source: uncorrected Ubar = 0.999157, pressure gradient = 7.47191
GAMG:  Solving for p, Initial residual = 0.0036738, Final residual = 0.000215277, No Iterations 4
time step continuity errors : sum local = 0.00534965, global = -3.10088e-17, cumulative = -1.68513e-16
Pressure gradient source: uncorrected Ubar = 0.999656, pressure gradient = 7.21517
smoothSolver:  Solving for omega, Initial residual = 0.036947, Final residual = 0.00351769, No Iterations 5
smoothSolver:  Solving for k, Initial residual = 0.0179375, Final residual = 0.00134301, No Iterations 6
ExecutionTime = 0.101594 s  ClockTime = 0 s

Time = 34s

smoothSolver:  Solving for Ux, Initial residual = 0.00734734, Final residual = 0.00060381, No Iterations 5
smoothSolver:  Solving for Uy, Initial residual = 0.0549741, Final residual = 0.00357917, No Iterations 5
Pressure gradient source: uncorrected Ubar = 0.998995, pressure gradient = 7.76161
GAMG:  Solving for p, Initial residual = 0.00335291, Final residual = 0.000207049, No Iterations 4
time step continuity errors : sum local = 0.00560333, global = 3.00337e-17, cumulative = -1.3848e-16
Pressure gradient source: uncorrected Ubar = 0.999618, pressure gradient = 7.42263
smoothSolver:  Solving for omega, Initial residual = 0.0342857, Final residual = 0.00327209, No Iterations 5
smoothSolver:  Solving for k, Initial residual = 0.016296, Final residual = 0.00123731, No Iterations 6
ExecutionTime = 0.104163 s  ClockTime = 0 s

Time = 35s

smoothSolver:  Solving for Ux, Initial residual = 0.00703922, Final residual = 0.000579102, No Iterations 5
smoothSolver:  Solving for Uy, Initial residual = 0.0446701, Final residual = 0.0032551, No Iterations 5
Pressure gradient source: uncorrected Ubar = 0.997041, pressure gradient = 9.17881
GAMG:  Solving for p, Initial residual = 0.00304655, Final residual = 0.000251498, No Iterations 4
time step continuity errors : sum local = 0.00611127, global = -4.84638e-17, cumulative = -1.86943e-16
Pressure gradient source: uncorrected Ubar = 0.999328, pressure gradient = 7.82178
smoothSolver:  Solving for omega, Initial residual = 0.0329605, Final residual = 0.0021612, No Iterations 6
smoothSolver:  Solving for k, Initial residual = 0.0147132, Final residual = 0.00112181, No Iterations 6
ExecutionTime = 0.106737 s  ClockTime = 0 s

Time = 36s

smoothSolver:  Solving for Ux, Initial residual = 0.00677888, Final residual = 0.000557878, No Iterations 5
smoothSolver:  Solving for Uy, Initial residual = 0.0368874, Final residual = 0.00294951, No Iterations 5
Pressure gradient source: uncorrected Ubar = 0.998069, pressure gradient = 9.05267
GAMG:  Solving for p, Initial residual = 0.00282384, Final residual = 0.000230841, No Iterations 8
time step continuity errors : sum local = 0.00510316, global = -8.70614e-17, cumulative = -2.74005e-16
Pressure gradient source: uncorrected Ubar = 0.9995, pressure gradient = 8.1406
smoothSolver:  Solving for omega, Initial residual = 0.0304084, Final residual = 0.00199795, No Iterations 6
smoothSolver:  Solving for k, Initial residual = 0.0133493, Final residual = 0.00102081, No Iterations 6
ExecutionTime = 0.109477 s  ClockTime = 0 s

Time = 37s

smoothSolver:  Solving for Ux, Initial residual = 0.00654118, Final residual = 0.000538185, No Iterations 5
smoothSolver:  Solving for Uy, Initial residual = 0.0305674, Final residual = 0.00262887, No Iterations 5
Pressure gradient source: uncorrected Ubar = 0.998627, pressure gradient = 9.09364
GAMG:  Solving for p, Initial residual = 0.00241008, Final residual = 0.000210022, No Iterations 10
time step continuity errors : sum local = 0.00403793, global = -6.6299e-17, cumulative = -3.40304e-16
Pressure gradient source: uncorrected Ubar = 0.999605, pressure gradient = 8.41461
smoothSolver:  Solving for omega, Initial residual = 0.0290298, Final residual = 0.00198448, No Iterations 6
smoothSolver:  Solving for k, Initial residual = 0.0120983, Final residual = 0.000920285, No Iterations 6
ExecutionTime = 0.112313 s  ClockTime = 0 s

Time = 38s

smoothSolver:  Solving for Ux, Initial residual = 0.00633833, Final residual = 0.000521205, No Iterations 5
smoothSolver:  Solving for Uy, Initial residual = 0.0258329, Final residual = 0.00236103, No Iterations 5
Pressure gradient source: uncorrected Ubar = 0.999809, pressure gradient = 8.55637
GAMG:  Solving for p, Initial residual = 0.00200714, Final residual = 0.000180861, No Iterations 12
time step continuity errors : sum local = 0.00297747, global = 4.5049e-17, cumulative = -2.95255e-16
Pressure gradient source: uncorrected Ubar = 0.999814, pressure gradient = 8.55296
smoothSolver:  Solving for omega, Initial residual = 0.0269727, Final residual = 0.00181491, No Iterations 6
smoothSolver:  Solving for k, Initial residual = 0.011078, Final residual = 0.000848584, No Iterations 6
ExecutionTime = 0.11525 s  ClockTime = 0 s

Time = 39s

smoothSolver:  Solving for Ux, Initial residual = 0.00615734, Final residual = 0.000506415, No Iterations 5
smoothSolver:  Solving for Uy, Initial residual = 0.0238737, Final residual = 0.00223583, No Iterations 5
Pressure gradient source: uncorrected Ubar = 1.00042, pressure gradient = 8.22453
GAMG:  Solving for p, Initial residual = 0.00174448, Final residual = 0.000163321, No Iterations 12
time step continuity errors : sum local = 0.00227535, global = 9.62229e-18, cumulative = -2.85633e-16
Pressure gradient source: uncorrected Ubar = 0.999918, pressure gradient = 8.61799
smoothSolver:  Solving for omega, Initial residual = 0.025125, Final residual = 0.00175756, No Iterations 6
smoothSolver:  Solving for k, Initial residual = 0.0101819, Final residual = 0.000784618, No Iterations 6
ExecutionTime = 0.118204 s  ClockTime = 0 s

Time = 40s

smoothSolver:  Solving for Ux, Initial residual = 0.00599156, Final residual = 0.000493125, No Iterations 5
smoothSolver:  Solving for Uy, Initial residual = 0.0227621, Final residual = 0.00219088, No Iterations 5
Pressure gradient source: uncorrected Ubar = 1.00085, pressure gradient = 7.90705
GAMG:  Solving for p, Initial residual = 0.00146658, Final residual = 0.000124783, No Iterations 12
time step continuity errors : sum local = 0.00151713, global = 1.61112e-16, cumulative = -1.2452e-16
Pressure gradient source: uncorrected Ubar = 0.999992, pressure gradient = 8.62478
smoothSolver:  Solving for omega, Initial residual = 0.0240078, Final residual = 0.00171481, No Iterations 6
smoothSolver:  Solving for k, Initial residual = 0.0093881, Final residual = 0.000723986, No Iterations 6
ExecutionTime = 0.12111 s  ClockTime = 0 s

Time = 41s

smoothSolver:  Solving for Ux, Initial residual = 0.00583876, Final residual = 0.000481861, No Iterations 5
smoothSolver:  Solving for Uy, Initial residual = 0.0225892, Final residual = 0.002202, No Iterations 5
Pressure gradient source: uncorrected Ubar = 1.00084, pressure gradient = 7.88456
GAMG:  Solving for p, Initial residual = 0.00125013, Final residual = 0.000110591, No Iterations 5
time step continuity errors : sum local = 0.00121231, global = -1.37152e-17, cumulative = -1.38235e-16
Pressure gradient source: uncorrected Ubar = 0.999994, pressure gradient = 8.62975
smoothSolver:  Solving for omega, Initial residual = 0.022597, Final residual = 0.00163176, No Iterations 6
smoothSolver:  Solving for k, Initial residual = 0.0087461, Final residual = 0.000671647, No Iterations 6
ExecutionTime = 0.123742 s  ClockTime = 0 s

Time = 42s

smoothSolver:  Solving for Ux, Initial residual = 0.0056994, Final residual = 0.000472184, No Iterations 5
smoothSolver:  Solving for Uy, Initial residual = 0.0229405, Final residual = 0.00223427, No Iterations 5
Pressure gradient source: uncorrected Ubar = 1.00097, pressure gradient = 7.73591
GAMG:  Solving for p, Initial residual = 0.00105713, Final residual = 9.86966e-05, No Iterations 3
time step continuity errors : sum local = 0.000896906, global = -3.57787e-18, cumulative = -1.41813e-16
Pressure gradient source: uncorrected Ubar = 1.00002, pressure gradient = 8.61548
smoothSolver:  Solving for omega, Initial residual = 0.0213626, Final residual = 0.00155606, No Iterations 6
smoothSolver:  Solving for k, Initial residual = 0.00821268, Final residual = 0.000625149, No Iterations 6
ExecutionTime = 0.126279 s  ClockTime = 0 s

Time = 43s

smoothSolver:  Solving for Ux, Initial residual = 0.00557406, Final residual = 0.000463604, No Iterations 5
smoothSolver:  Solving for Uy, Initial residual = 0.0225492, Final residual = 0.00220932, No Iterations 5
Pressure gradient source: uncorrected Ubar = 1.00101, pressure gradient = 7.63913
GAMG:  Solving for p, Initial residual = 0.000888779, Final residual = 6.57411e-05, No Iterations 4
time step continuity errors : sum local = 0.000524683, global = -2.49366e-17, cumulative = -1.6675e-16
Pressure gradient source: uncorrected Ubar = 1.00002, pressure gradient = 8.59141
smoothSolver:  Solving for omega, Initial residual = 0.0202948, Final residual = 0.00147355, No Iterations 6
smoothSolver:  Solving for k, Initial residual = 0.00779665, Final residual = 0.000586715, No Iterations 6
ExecutionTime = 0.128859 s  ClockTime = 0 s

Time = 44s

smoothSolver:  Solving for Ux, Initial residual = 0.00546033, Final residual = 0.000456061, No Iterations 5
smoothSolver:  Solving for Uy, Initial residual = 0.0220306, Final residual = 0.00217405, No Iterations 5
Pressure gradient source: uncorrected Ubar = 1.00106, pressure gradient = 7.52418
GAMG:  Solving for p, Initial residual = 0.000766099, Final residual = 5.63315e-05, No Iterations 8
time step continuity errors : sum local = 0.000346948, global = -1.89194e-17, cumulative = -1.85669e-16
Pressure gradient source: uncorrected Ubar = 1.00003, pressure gradient = 8.55719
smoothSolver:  Solving for omega, Initial residual = 0.0192477, Final residual = 0.00140892, No Iterations 6
smoothSolver:  Solving for k, Initial residual = 0.0074997, Final residual = 0.000559813, No Iterations 6
ExecutionTime = 0.131609 s  ClockTime = 0 s

Time = 45s

smoothSolver:  Solving for Ux, Initial residual = 0.00535288, Final residual = 0.00044921, No Iterations 5
smoothSolver:  Solving for Uy, Initial residual = 0.0218, Final residual = 0.00139546, No Iterations 6
Pressure gradient source: uncorrected Ubar = 1.00107, pressure gradient = 7.4372
GAMG:  Solving for p, Initial residual = 0.000694234, Final residual = 6.51767e-05, No Iterations 8
time step continuity errors : sum local = 0.000393881, global = 7.05274e-17, cumulative = -1.15142e-16
Pressure gradient source: uncorrected Ubar = 1.00004, pressure gradient = 8.51847
smoothSolver:  Solving for omega, Initial residual = 0.0186664, Final residual = 0.00137936, No Iterations 6
smoothSolver:  Solving for k, Initial residual = 0.0072677, Final residual = 0.000539587, No Iterations 6
ExecutionTime = 0.134369 s  ClockTime = 0 s

Time = 46s

smoothSolver:  Solving for Ux, Initial residual = 0.00525348, Final residual = 0.000443117, No Iterations 5
smoothSolver:  Solving for Uy, Initial residual = 0.0214336, Final residual = 0.00138638, No Iterations 6
Pressure gradient source: uncorrected Ubar = 1.00103, pressure gradient = 7.38666
GAMG:  Solving for p, Initial residual = 0.00062008, Final residual = 6.04376e-05, No Iterations 8
time step continuity errors : sum local = 0.000361679, global = 2.42317e-17, cumulative = -9.09101e-17
Pressure gradient source: uncorrected Ubar = 1.00003, pressure gradient = 8.48249
smoothSolver:  Solving for omega, Initial residual = 0.0176633, Final residual = 0.00128248, No Iterations 6
smoothSolver:  Solving for k, Initial residual = 0.00711703, Final residual = 0.000534644, No Iterations 6
ExecutionTime = 0.137131 s  ClockTime = 0 s

Time = 47s

smoothSolver:  Solving for Ux, Initial residual = 0.00516291, Final residual = 0.000437625, No Iterations 5
smoothSolver:  Solving for Uy, Initial residual = 0.0213403, Final residual = 0.00138096, No Iterations 6
Pressure gradient source: uncorrected Ubar = 1.00107, pressure gradient = 7.26466
GAMG:  Solving for p, Initial residual = 0.00060025, Final residual = 5.49639e-05, No Iterations 8
time step continuity errors : sum local = 0.000296846, global = -7.20419e-17, cumulative = -1.62952e-16
Pressure gradient source: uncorrected Ubar = 1.00004, pressure gradient = 8.43836
smoothSolver:  Solving for omega, Initial residual = 0.0170674, Final residual = 0.00124798, No Iterations 6
smoothSolver:  Solving for k, Initial residual = 0.00699054, Final residual = 0.000528749, No Iterations 6
ExecutionTime = 0.139901 s  ClockTime = 0 s

Time = 48s

smoothSolver:  Solving for Ux, Initial residual = 0.00507799, Final residual = 0.000432222, No Iterations 5
smoothSolver:  Solving for Uy, Initial residual = 0.0210993, Final residual = 0.00137235, No Iterations 6
Pressure gradient source: uncorrected Ubar = 1.00102, pressure gradient = 7.22673
GAMG:  Solving for p, Initial residual = 0.00057378, Final residual = 5.4303e-05, No Iterations 8
time step continuity errors : sum local = 0.00025828, global = -8.51141e-18, cumulative = -1.71463e-16
Pressure gradient source: uncorrected Ubar = 1.00003, pressure gradient = 8.40163
smoothSolver:  Solving for omega, Initial residual = 0.01626, Final residual = 0.00116295, No Iterations 6
smoothSolver:  Solving for k, Initial residual = 0.00687654, Final residual = 0.000520779, No Iterations 6
ExecutionTime = 0.142654 s  ClockTime = 0 s

Time = 49s

smoothSolver:  Solving for Ux, Initial residual = 0.00499821, Final residual = 0.000427406, No Iterations 5
smoothSolver:  Solving for Uy, Initial residual = 0.0209833, Final residual = 0.00137491, No Iterations 6
Pressure gradient source: uncorrected Ubar = 1.00102, pressure gradient = 7.13772
GAMG:  Solving for p, Initial residual = 0.000593229, Final residual = 5.65696e-05, No Iterations 9
time step continuity errors : sum local = 0.000283209, global = -1.76184e-17, cumulative = -1.89082e-16
Pressure gradient source: uncorrected Ubar = 1.00003, pressure gradient = 8.36482
smoothSolver:  Solving for omega, Initial residual = 0.0156363, Final residual = 0.00110687, No Iterations 6
smoothSolver:  Solving for k, Initial residual = 0.00680191, Final residual = 0.00051961, No Iterations 6
ExecutionTime = 0.145447 s  ClockTime = 0 s

Time = 50s

smoothSolver:  Solving for Ux, Initial residual = 0.0049235, Final residual = 0.000422895, No Iterations 5
smoothSolver:  Solving for Uy, Initial residual = 0.0208186, Final residual = 0.00137946, No Iterations 6
Pressure gradient source: uncorrected Ubar = 1.00101, pressure gradient = 7.05545
GAMG:  Solving for p, Initial residual = 0.000676133, Final residual = 6.25798e-05, No Iterations 10
time step continuity errors : sum local = 0.000323854, global = -4.8518e-17, cumulative = -2.376e-16
Pressure gradient source: uncorrected Ubar = 1.00003, pressure gradient = 8.33136
smoothSolver:  Solving for omega, Initial residual = 0.0151369, Final residual = 0.00107076, No Iterations 6
smoothSolver:  Solving for k, Initial residual = 0.00671225, Final residual = 0.00051404, No Iterations 6
ExecutionTime = 0.148306 s  ClockTime = 0 s

Time = 51s

smoothSolver:  Solving for Ux, Initial residual = 0.00485327, Final residual = 0.000418512, No Iterations 5
smoothSolver:  Solving for Uy, Initial residual = 0.0205459, Final residual = 0.00138137, No Iterations 6
Pressure gradient source: uncorrected Ubar = 1.00099, pressure gradient = 6.99228
GAMG:  Solving for p, Initial residual = 0.000837888, Final residual = 8.04211e-05, No Iterations 10
time step continuity errors : sum local = 0.00038571, global = -2.2714e-17, cumulative = -2.60314e-16
Pressure gradient source: uncorrected Ubar = 1.00002, pressure gradient = 8.30638
smoothSolver:  Solving for omega, Initial residual = 0.0144802, Final residual = 0.00100138, No Iterations 6
smoothSolver:  Solving for k, Initial residual = 0.00664156, Final residual = 0.000507065, No Iterations 6
ExecutionTime = 0.151146 s  ClockTime = 0 s

Time = 52s

smoothSolver:  Solving for Ux, Initial residual = 0.00478904, Final residual = 0.000414301, No Iterations 5
smoothSolver:  Solving for Uy, Initial residual = 0.0204863, Final residual = 0.001408, No Iterations 6
Pressure gradient source: uncorrected Ubar = 1.00096, pressure gradient = 6.93299
GAMG:  Solving for p, Initial residual = 0.00102648, Final residual = 8.67215e-05, No Iterations 12
time step continuity errors : sum local = 0.00037527, global = -6.72203e-18, cumulative = -2.67036e-16
Pressure gradient source: uncorrected Ubar = 1.00001, pressure gradient = 8.29053
smoothSolver:  Solving for omega, Initial residual = 0.013701, Final residual = 0.000961332, No Iterations 6
smoothSolver:  Solving for k, Initial residual = 0.00656544, Final residual = 0.000499727, No Iterations 6
ExecutionTime = 0.154079 s  ClockTime = 0 s

Time = 53s

smoothSolver:  Solving for Ux, Initial residual = 0.00472423, Final residual = 0.000409986, No Iterations 5
smoothSolver:  Solving for Uy, Initial residual = 0.0207506, Final residual = 0.0014515, No Iterations 6
Pressure gradient source: uncorrected Ubar = 1.00057, pressure gradient = 7.43781
GAMG:  Solving for p, Initial residual = 0.00135491, Final residual = 0.00011606, No Iterations 8
time step continuity errors : sum local = 0.000327895, global = -6.86299e-17, cumulative = -3.35666e-16
Pressure gradient source: uncorrected Ubar = 0.999954, pressure gradient = 8.35999
smoothSolver:  Solving for omega, Initial residual = 0.0193359, Final residual = 0.00182504, No Iterations 4
smoothSolver:  Solving for k, Initial residual = 0.00662816, Final residual = 0.000490362, No Iterations 6
ExecutionTime = 0.156841 s  ClockTime = 0 s

Time = 54s

smoothSolver:  Solving for Ux, Initial residual = 0.00467961, Final residual = 0.000407681, No Iterations 5
smoothSolver:  Solving for Uy, Initial residual = 0.0224385, Final residual = 0.0015353, No Iterations 6
Pressure gradient source: uncorrected Ubar = 1.00047, pressure gradient = 7.65465
GAMG:  Solving for p, Initial residual = 0.0161368, Final residual = 0.00130605, No Iterations 2
time step continuity errors : sum local = 0.00310836, global = 2.97074e-17, cumulative = -3.05958e-16
Pressure gradient source: uncorrected Ubar = 0.999979, pressure gradient = 8.3914
smoothSolver:  Solving for omega, Initial residual = 0.0336816, Final residual = 0.00239754, No Iterations 3
smoothSolver:  Solving for k, Initial residual = 0.00657557, Final residual = 0.000484409, No Iterations 6
ExecutionTime = 0.159304 s  ClockTime = 0 s

Time = 55s

smoothSolver:  Solving for Ux, Initial residual = 0.00463378, Final residual = 0.000406486, No Iterations 5
smoothSolver:  Solving for Uy, Initial residual = 0.0221082, Final residual = 0.00150933, No Iterations 6
Pressure gradient source: uncorrected Ubar = 1.00293, pressure gradient = 4.13019
GAMG:  Solving for p, Initial residual = 0.00527912, Final residual = 0.000484174, No Iterations 3
time step continuity errors : sum local = 0.00238142, global = -7.38339e-17, cumulative = -3.79792e-16
Pressure gradient source: uncorrected Ubar = 1.0004, pressure gradient = 7.80848
smoothSolver:  Solving for omega, Initial residual = 0.0387826, Final residual = 0.00281476, No Iterations 3
smoothSolver:  Solving for k, Initial residual = 0.00631943, Final residual = 0.00048613, No Iterations 6
ExecutionTime = 0.161816 s  ClockTime = 0 s

Time = 56s

smoothSolver:  Solving for Ux, Initial residual = 0.00456899, Final residual = 0.000404678, No Iterations 5
smoothSolver:  Solving for Uy, Initial residual = 0.0157315, Final residual = 0.0010888, No Iterations 6
Pressure gradient source: uncorrected Ubar = 1.00206, pressure gradient = 4.64664
GAMG:  Solving for p, Initial residual = 0.0047551, Final residual = 0.000242699, No Iterations 3
time step continuity errors : sum local = 0.000605681, global = -6.87384e-17, cumulative = -4.48531e-16
Pressure gradient source: uncorrected Ubar = 1.0002, pressure gradient = 7.50568
smoothSolver:  Solving for omega, Initial residual = 0.0208766, Final residual = 0.00208502, No Iterations 4
smoothSolver:  Solving for k, Initial residual = 0.00629016, Final residual = 0.000482956, No Iterations 6
ExecutionTime = 0.164391 s  ClockTime = 0 s

Time = 57s

smoothSolver:  Solving for Ux, Initial residual = 0.00452381, Final residual = 0.000402034, No Iterations 5
smoothSolver:  Solving for Uy, Initial residual = 0.0189826, Final residual = 0.00137617, No Iterations 6
Pressure gradient source: uncorrected Ubar = 1.00018, pressure gradient = 7.22553
GAMG:  Solving for p, Initial residual = 0.00529258, Final residual = 0.000521998, No Iterations 3
time step continuity errors : sum local = 0.00128468, global = 1.98953e-17, cumulative = -4.28635e-16
Pressure gradient source: uncorrected Ubar = 0.999906, pressure gradient = 7.65675
smoothSolver:  Solving for omega, Initial residual = 0.0152579, Final residual = 0.0012119, No Iterations 5
smoothSolver:  Solving for k, Initial residual = 0.00626825, Final residual = 0.000477484, No Iterations 6
ExecutionTime = 0.166929 s  ClockTime = 0 s

Time = 58s

smoothSolver:  Solving for Ux, Initial residual = 0.00447349, Final residual = 0.000397788, No Iterations 5
smoothSolver:  Solving for Uy, Initial residual = 0.0226848, Final residual = 0.00165086, No Iterations 6
Pressure gradient source: uncorrected Ubar = 1.00023, pressure gradient = 7.27199
GAMG:  Solving for p, Initial residual = 0.00428564, Final residual = 0.000331446, No Iterations 3
time step continuity errors : sum local = 0.000764035, global = -7.37316e-18, cumulative = -4.36008e-16
Pressure gradient source: uncorrected Ubar = 0.999907, pressure gradient = 7.81335
smoothSolver:  Solving for omega, Initial residual = 0.0201558, Final residual = 0.00155303, No Iterations 4
smoothSolver:  Solving for k, Initial residual = 0.00638544, Final residual = 0.000475144, No Iterations 6
ExecutionTime = 0.169446 s  ClockTime = 0 s

Time = 59s

smoothSolver:  Solving for Ux, Initial residual = 0.00443967, Final residual = 0.000395814, No Iterations 5
smoothSolver:  Solving for Uy, Initial residual = 0.0271342, Final residual = 0.00191869, No Iterations 6
Pressure gradient source: uncorrected Ubar = 1.00023, pressure gradient = 7.43067
GAMG:  Solving for p, Initial residual = 0.0197372, Final residual = 0.00140839, No Iterations 2
time step continuity errors : sum local = 0.00307627, global = 4.11997e-17, cumulative = -3.94809e-16
Pressure gradient source: uncorrected Ubar = 0.999957, pressure gradient = 7.88452
smoothSolver:  Solving for omega, Initial residual = 0.0302342, Final residual = 0.00211995, No Iterations 3
smoothSolver:  Solving for k, Initial residual = 0.00628522, Final residual = 0.000472937, No Iterations 6
ExecutionTime = 0.171951 s  ClockTime = 0 s

Time = 60s

smoothSolver:  Solving for Ux, Initial residual = 0.00439141, Final residual = 0.000394113, No Iterations 5
smoothSolver:  Solving for Uy, Initial residual = 0.0276323, Final residual = 0.00192796, No Iterations 6
Pressure gradient source: uncorrected Ubar = 1.00277, pressure gradient = 3.34772
GAMG:  Solving for p, Initial residual = 0.00522118, Final residual = 0.000383324, No Iterations 4
time step continuity errors : sum local = 0.00167183, global = 1.95698e-17, cumulative = -3.75239e-16
Pressure gradient source: uncorrected Ubar = 1.00038, pressure gradient = 7.26548
smoothSolver:  Solving for omega, Initial residual = 0.0288836, Final residual = 0.00258389, No Iterations 3
smoothSolver:  Solving for k, Initial residual = 0.00606601, Final residual = 0.000470708, No Iterations 6
ExecutionTime = 0.174511 s  ClockTime = 0 s

Time = 61s

smoothSolver:  Solving for Ux, Initial residual = 0.00433813, Final residual = 0.000392492, No Iterations 5
smoothSolver:  Solving for Uy, Initial residual = 0.0176141, Final residual = 0.00130964, No Iterations 6
Pressure gradient source: uncorrected Ubar = 1.00164, pressure gradient = 4.44373
GAMG:  Solving for p, Initial residual = 0.00472022, Final residual = 0.000365624, No Iterations 3
time step continuity errors : sum local = 0.000707806, global = 2.65693e-18, cumulative = -3.72582e-16
Pressure gradient source: uncorrected Ubar = 1.00014, pressure gradient = 7.02189
smoothSolver:  Solving for omega, Initial residual = 0.017064, Final residual = 0.00112212, No Iterations 5
smoothSolver:  Solving for k, Initial residual = 0.00607242, Final residual = 0.000471914, No Iterations 6
ExecutionTime = 0.177042 s  ClockTime = 0 s

Time = 62s

smoothSolver:  Solving for Ux, Initial residual = 0.00430038, Final residual = 0.000389409, No Iterations 5
smoothSolver:  Solving for Uy, Initial residual = 0.0180326, Final residual = 0.00136233, No Iterations 6
Pressure gradient source: uncorrected Ubar = 1.00011, pressure gradient = 6.82319
GAMG:  Solving for p, Initial residual = 0.006809, Final residual = 0.000615019, No Iterations 2
time step continuity errors : sum local = 0.00114007, global = -3.08727e-17, cumulative = -4.03455e-16
Pressure gradient source: uncorrected Ubar = 0.999898, pressure gradient = 7.20574
smoothSolver:  Solving for omega, Initial residual = 0.0134438, Final residual = 0.000962263, No Iterations 5
smoothSolver:  Solving for k, Initial residual = 0.00610005, Final residual = 0.000464945, No Iterations 6
ExecutionTime = 0.179516 s  ClockTime = 0 s

Time = 63s

smoothSolver:  Solving for Ux, Initial residual = 0.00426187, Final residual = 0.000386309, No Iterations 5
smoothSolver:  Solving for Uy, Initial residual = 0.021709, Final residual = 0.00158867, No Iterations 6
Pressure gradient source: uncorrected Ubar = 1.00039, pressure gradient = 6.50069
GAMG:  Solving for p, Initial residual = 0.0188061, Final residual = 0.00144059, No Iterations 2
time step continuity errors : sum local = 0.00201771, global = 2.40422e-17, cumulative = -3.79412e-16
Pressure gradient source: uncorrected Ubar = 0.999966, pressure gradient = 7.2682
smoothSolver:  Solving for omega, Initial residual = 0.0144938, Final residual = 0.00139933, No Iterations 4
smoothSolver:  Solving for k, Initial residual = 0.00602858, Final residual = 0.000464608, No Iterations 6
ExecutionTime = 0.181978 s  ClockTime = 0 s

Time = 64s

smoothSolver:  Solving for Ux, Initial residual = 0.00421077, Final residual = 0.000383812, No Iterations 5
smoothSolver:  Solving for Uy, Initial residual = 0.0244376, Final residual = 0.00175604, No Iterations 6
Pressure gradient source: uncorrected Ubar = 1.00122, pressure gradient = 5.03009
GAMG:  Solving for p, Initial residual = 0.00626227, Final residual = 0.000497888, No Iterations 4
time step continuity errors : sum local = 0.0012342, global = 8.6192e-18, cumulative = -3.70793e-16
Pressure gradient source: uncorrected Ubar = 1.00011, pressure gradient = 7.06368
smoothSolver:  Solving for omega, Initial residual = 0.0140881, Final residual = 0.00100978, No Iterations 5
smoothSolver:  Solving for k, Initial residual = 0.00587147, Final residual = 0.000460194, No Iterations 6
ExecutionTime = 0.184539 s  ClockTime = 0 s

Time = 65s

smoothSolver:  Solving for Ux, Initial residual = 0.00416068, Final residual = 0.000380924, No Iterations 5
smoothSolver:  Solving for Uy, Initial residual = 0.0215634, Final residual = 0.00162848, No Iterations 6
Pressure gradient source: uncorrected Ubar = 1.00141, pressure gradient = 4.38676
GAMG:  Solving for p, Initial residual = 0.00584549, Final residual = 0.00056139, No Iterations 3
time step continuity errors : sum local = 0.00107806, global = 1.00827e-17, cumulative = -3.60711e-16
Pressure gradient source: uncorrected Ubar = 1.00011, pressure gradient = 6.85102
smoothSolver:  Solving for omega, Initial residual = 0.0106319, Final residual = 0.00101657, No Iterations 5
smoothSolver:  Solving for k, Initial residual = 0.00588245, Final residual = 0.000460901, No Iterations 6
ExecutionTime = 0.187097 s  ClockTime = 0 s

Time = 66s

smoothSolver:  Solving for Ux, Initial residual = 0.00412606, Final residual = 0.000377749, No Iterations 5
smoothSolver:  Solving for Uy, Initial residual = 0.0204911, Final residual = 0.00155481, No Iterations 6
Pressure gradient source: uncorrected Ubar = 0.99978, pressure gradient = 7.29033
GAMG:  Solving for p, Initial residual = 0.00769263, Final residual = 0.000719277, No Iterations 4
time step continuity errors : sum local = 0.000934391, global = -3.35018e-17, cumulative = -3.94212e-16
Pressure gradient source: uncorrected Ubar = 0.999856, pressure gradient = 7.13721
smoothSolver:  Solving for omega, Initial residual = 0.014868, Final residual = 0.00123207, No Iterations 4
smoothSolver:  Solving for k, Initial residual = 0.00598851, Final residual = 0.000457013, No Iterations 6
ExecutionTime = 0.189655 s  ClockTime = 0 s

Time = 67s

smoothSolver:  Solving for Ux, Initial residual = 0.00410081, Final residual = 0.000375631, No Iterations 5
smoothSolver:  Solving for Uy, Initial residual = 0.0229428, Final residual = 0.00168289, No Iterations 6
Pressure gradient source: uncorrected Ubar = 0.99994, pressure gradient = 7.25347
GAMG:  Solving for p, Initial residual = 0.0280025, Final residual = 0.00248971, No Iterations 2
time step continuity errors : sum local = 0.00299379, global = 1.06252e-17, cumulative = -3.83587e-16
Pressure gradient source: uncorrected Ubar = 0.99992, pressure gradient = 7.29305
smoothSolver:  Solving for omega, Initial residual = 0.0229768, Final residual = 0.00175033, No Iterations 3
smoothSolver:  Solving for k, Initial residual = 0.00591523, Final residual = 0.000455393, No Iterations 6
ExecutionTime = 0.192098 s  ClockTime = 0 s

Time = 68s

smoothSolver:  Solving for Ux, Initial residual = 0.00406397, Final residual = 0.000373967, No Iterations 5
smoothSolver:  Solving for Uy, Initial residual = 0.0263541, Final residual = 0.00188363, No Iterations 6
Pressure gradient source: uncorrected Ubar = 1.00247, pressure gradient = 2.56864
GAMG:  Solving for p, Initial residual = 0.00826929, Final residual = 0.000624159, No Iterations 4
time step continuity errors : sum local = 0.00176206, global = 2.33643e-17, cumulative = -3.60223e-16
Pressure gradient source: uncorrected Ubar = 1.00035, pressure gradient = 6.62325
smoothSolver:  Solving for omega, Initial residual = 0.0224495, Final residual = 0.00206782, No Iterations 3
smoothSolver:  Solving for k, Initial residual = 0.00573917, Final residual = 0.000456089, No Iterations 6
ExecutionTime = 0.19466 s  ClockTime = 0 s

Time = 69s

smoothSolver:  Solving for Ux, Initial residual = 0.00402384, Final residual = 0.000372412, No Iterations 5
smoothSolver:  Solving for Uy, Initial residual = 0.0149513, Final residual = 0.00111911, No Iterations 6
Pressure gradient source: uncorrected Ubar = 1.0017, pressure gradient = 3.2044
GAMG:  Solving for p, Initial residual = 0.0103191, Final residual = 0.000566066, No Iterations 3
time step continuity errors : sum local = 0.000631202, global = 3.91939e-17, cumulative = -3.21029e-16
Pressure gradient source: uncorrected Ubar = 1.00016, pressure gradient = 6.29525
smoothSolver:  Solving for omega, Initial residual = 0.0129522, Final residual = 0.000906417, No Iterations 5
smoothSolver:  Solving for k, Initial residual = 0.00576736, Final residual = 0.000454514, No Iterations 6
ExecutionTime = 0.197193 s  ClockTime = 0 s

Time = 70s

smoothSolver:  Solving for Ux, Initial residual = 0.00399551, Final residual = 0.000369517, No Iterations 5
smoothSolver:  Solving for Uy, Initial residual = 0.0177837, Final residual = 0.0013472, No Iterations 6
Pressure gradient source: uncorrected Ubar = 0.999041, pressure gradient = 8.32376
GAMG:  Solving for p, Initial residual = 0.0154037, Final residual = 0.00109392, No Iterations 3
time step continuity errors : sum local = 0.00110298, global = -9.7557e-19, cumulative = -3.22005e-16
Pressure gradient source: uncorrected Ubar = 0.999743, pressure gradient = 6.83984
smoothSolver:  Solving for omega, Initial residual = 0.0192667, Final residual = 0.00171621, No Iterations 3
smoothSolver:  Solving for k, Initial residual = 0.00592111, Final residual = 0.000451099, No Iterations 6
ExecutionTime = 0.199711 s  ClockTime = 0 s

Time = 71s

smoothSolver:  Solving for Ux, Initial residual = 0.00397229, Final residual = 0.000367594, No Iterations 5
smoothSolver:  Solving for Uy, Initial residual = 0.0264814, Final residual = 0.00192971, No Iterations 6
Pressure gradient source: uncorrected Ubar = 0.999816, pressure gradient = 7.21248
GAMG:  Solving for p, Initial residual = 0.0413747, Final residual = 0.00313484, No Iterations 2
time step continuity errors : sum local = 0.0032139, global = -1.81604e-17, cumulative = -3.40165e-16
Pressure gradient source: uncorrected Ubar = 0.999913, pressure gradient = 7.01673
smoothSolver:  Solving for omega, Initial residual = 0.030984, Final residual = 0.00251796, No Iterations 2
smoothSolver:  Solving for k, Initial residual = 0.0058719, Final residual = 0.000453427, No Iterations 6
ExecutionTime = 0.202163 s  ClockTime = 0 s

Time = 72s

smoothSolver:  Solving for Ux, Initial residual = 0.0039382, Final residual = 0.00036665, No Iterations 5
smoothSolver:  Solving for Uy, Initial residual = 0.0299122, Final residual = 0.00212806, No Iterations 6
Pressure gradient source: uncorrected Ubar = 1.00291, pressure gradient = 1.25986
GAMG:  Solving for p, Initial residual = 0.0101033, Final residual = 0.000941416, No Iterations 3
time step continuity errors : sum local = 0.0022032, global = -6.6001e-17, cumulative = -4.06166e-16
Pressure gradient source: uncorrected Ubar = 1.00045, pressure gradient = 6.13462
smoothSolver:  Solving for omega, Initial residual = 0.0290539, Final residual = 0.00187499, No Iterations 3
smoothSolver:  Solving for k, Initial residual = 0.00567883, Final residual = 0.000455387, No Iterations 6
ExecutionTime = 0.204657 s  ClockTime = 0 s

Time = 73s

smoothSolver:  Solving for Ux, Initial residual = 0.0039003, Final residual = 0.000365499, No Iterations 5
smoothSolver:  Solving for Uy, Initial residual = 0.0144255, Final residual = 0.00107999, No Iterations 6
Pressure gradient source: uncorrected Ubar = 1.00188, pressure gradient = 2.1899
GAMG:  Solving for p, Initial residual = 0.0143158, Final residual = 0.00115559, No Iterations 2
time step continuity errors : sum local = 0.00125502, global = -7.54063e-17, cumulative = -4.81572e-16
Pressure gradient source: uncorrected Ubar = 1.0002, pressure gradient = 5.72075
smoothSolver:  Solving for omega, Initial residual = 0.0147504, Final residual = 0.00130901, No Iterations 4
smoothSolver:  Solving for k, Initial residual = 0.0057107, Final residual = 0.00045362, No Iterations 6
ExecutionTime = 0.207206 s  ClockTime = 0 s

Time = 74s

smoothSolver:  Solving for Ux, Initial residual = 0.0038775, Final residual = 0.000363238, No Iterations 5
smoothSolver:  Solving for Uy, Initial residual = 0.0158713, Final residual = 0.0012009, No Iterations 6
Pressure gradient source: uncorrected Ubar = 0.998798, pressure gradient = 8.38262
GAMG:  Solving for p, Initial residual = 0.0198154, Final residual = 0.00197029, No Iterations 4
time step continuity errors : sum local = 0.0015787, global = 2.53023e-17, cumulative = -4.5627e-16
Pressure gradient source: uncorrected Ubar = 0.999705, pressure gradient = 6.37479
smoothSolver:  Solving for omega, Initial residual = 0.0202381, Final residual = 0.0016138, No Iterations 3
smoothSolver:  Solving for k, Initial residual = 0.00589796, Final residual = 0.000452964, No Iterations 6
ExecutionTime = 0.209748 s  ClockTime = 0 s

Time = 75s

smoothSolver:  Solving for Ux, Initial residual = 0.00385457, Final residual = 0.000360554, No Iterations 5
smoothSolver:  Solving for Uy, Initial residual = 0.0241425, Final residual = 0.00173248, No Iterations 6
Pressure gradient source: uncorrected Ubar = 0.999745, pressure gradient = 6.91603
GAMG:  Solving for p, Initial residual = 0.0545954, Final residual = 0.00476207, No Iterations 2
time step continuity errors : sum local = 0.00364362, global = -3.06287e-17, cumulative = -4.86899e-16
Pressure gradient source: uncorrected Ubar = 0.999904, pressure gradient = 6.57834
smoothSolver:  Solving for omega, Initial residual = 0.0319294, Final residual = 0.00237322, No Iterations 2
smoothSolver:  Solving for k, Initial residual = 0.0058377, Final residual = 0.000453984, No Iterations 6
ExecutionTime = 0.212197 s  ClockTime = 0 s

Time = 76s

smoothSolver:  Solving for Ux, Initial residual = 0.00381936, Final residual = 0.000359636, No Iterations 5
smoothSolver:  Solving for Uy, Initial residual = 0.0310117, Final residual = 0.00221283, No Iterations 6
Pressure gradient source: uncorrected Ubar = 1.00295, pressure gradient = 0.455869
GAMG:  Solving for p, Initial residual = 0.0116208, Final residual = 0.00108336, No Iterations 3
time step continuity errors : sum local = 0.00221599, global = 3.82994e-17, cumulative = -4.48599e-16
Pressure gradient source: uncorrected Ubar = 1.00046, pressure gradient = 5.61971
smoothSolver:  Solving for omega, Initial residual = 0.0296663, Final residual = 0.00281729, No Iterations 2
smoothSolver:  Solving for k, Initial residual = 0.00566236, Final residual = 0.000458694, No Iterations 6
ExecutionTime = 0.214698 s  ClockTime = 0 s

Time = 77s

smoothSolver:  Solving for Ux, Initial residual = 0.00379039, Final residual = 0.000359313, No Iterations 5
smoothSolver:  Solving for Uy, Initial residual = 0.0140369, Final residual = 0.00103574, No Iterations 6
Pressure gradient source: uncorrected Ubar = 1.00179, pressure gradient = 1.69002
GAMG:  Solving for p, Initial residual = 0.0195714, Final residual = 0.00190984, No Iterations 2
time step continuity errors : sum local = 0.00121034, global = -7.72491e-18, cumulative = -4.56324e-16
Pressure gradient source: uncorrected Ubar = 1.00019, pressure gradient = 5.208
smoothSolver:  Solving for omega, Initial residual = 0.0148695, Final residual = 0.00125506, No Iterations 4
smoothSolver:  Solving for k, Initial residual = 0.00571347, Final residual = 0.000457635, No Iterations 6
ExecutionTime = 0.217183 s  ClockTime = 0 s

Time = 78s

smoothSolver:  Solving for Ux, Initial residual = 0.00377078, Final residual = 0.000357426, No Iterations 5
smoothSolver:  Solving for Uy, Initial residual = 0.0169629, Final residual = 0.001272, No Iterations 6
Pressure gradient source: uncorrected Ubar = 0.998507, pressure gradient = 8.68703
GAMG:  Solving for p, Initial residual = 0.0298684, Final residual = 0.00282754, No Iterations 4
time step continuity errors : sum local = 0.00169369, global = -1.99222e-17, cumulative = -4.76246e-16
Pressure gradient source: uncorrected Ubar = 0.99966, pressure gradient = 6.00122
smoothSolver:  Solving for omega, Initial residual = 0.0209688, Final residual = 0.00155996, No Iterations 3
smoothSolver:  Solving for k, Initial residual = 0.0059176, Final residual = 0.000457533, No Iterations 6
ExecutionTime = 0.219745 s  ClockTime = 0 s

Time = 79s

smoothSolver:  Solving for Ux, Initial residual = 0.00374511, Final residual = 0.000354214, No Iterations 5
smoothSolver:  Solving for Uy, Initial residual = 0.0261881, Final residual = 0.00187612, No Iterations 6
Pressure gradient source: uncorrected Ubar = 0.99967, pressure gradient = 6.73339
GAMG:  Solving for p, Initial residual = 0.071398, Final residual = 0.00573898, No Iterations 2
time step continuity errors : sum local = 0.00371879, global = 9.17506e-18, cumulative = -4.67071e-16
Pressure gradient source: uncorrected Ubar = 0.999896, pressure gradient = 6.23198
smoothSolver:  Solving for omega, Initial residual = 0.033989, Final residual = 0.00227581, No Iterations 2
smoothSolver:  Solving for k, Initial residual = 0.0058595, Final residual = 0.000458922, No Iterations 6
ExecutionTime = 0.222189 s  ClockTime = 0 s

Time = 80s

smoothSolver:  Solving for Ux, Initial residual = 0.00371153, Final residual = 0.000353, No Iterations 5
smoothSolver:  Solving for Uy, Initial residual = 0.0336985, Final residual = 0.00239632, No Iterations 6
Pressure gradient source: uncorrected Ubar = 1.00309, pressure gradient = -0.434463
GAMG:  Solving for p, Initial residual = 0.0135536, Final residual = 0.00111863, No Iterations 3
time step continuity errors : sum local = 0.00210573, global = 5.1363e-18, cumulative = -4.61935e-16
Pressure gradient source: uncorrected Ubar = 1.0005, pressure gradient = 5.15091
smoothSolver:  Solving for omega, Initial residual = 0.0321322, Final residual = 0.00272113, No Iterations 2
smoothSolver:  Solving for k, Initial residual = 0.00566809, Final residual = 0.000464009, No Iterations 6
ExecutionTime = 0.224672 s  ClockTime = 0 s

Time = 81s

smoothSolver:  Solving for Ux, Initial residual = 0.00368606, Final residual = 0.00035312, No Iterations 5
smoothSolver:  Solving for Uy, Initial residual = 0.0142614, Final residual = 0.00105457, No Iterations 6
Pressure gradient source: uncorrected Ubar = 1.00182, pressure gradient = 0.975501
GAMG:  Solving for p, Initial residual = 0.0276648, Final residual = 0.00168588, No Iterations 3
time step continuity errors : sum local = 0.000795701, global = 5.68534e-18, cumulative = -4.5625e-16
Pressure gradient source: uncorrected Ubar = 1.0002, pressure gradient = 4.69927
smoothSolver:  Solving for omega, Initial residual = 0.0139054, Final residual = 0.0011592, No Iterations 4
smoothSolver:  Solving for k, Initial residual = 0.00574165, Final residual = 0.00046373, No Iterations 6
ExecutionTime = 0.227198 s  ClockTime = 0 s

Time = 82s

smoothSolver:  Solving for Ux, Initial residual = 0.00366734, Final residual = 0.000351672, No Iterations 5
smoothSolver:  Solving for Uy, Initial residual = 0.0163873, Final residual = 0.00116762, No Iterations 6
Pressure gradient source: uncorrected Ubar = 0.998974, pressure gradient = 7.15247
GAMG:  Solving for p, Initial residual = 0.054685, Final residual = 0.00241439, No Iterations 3
time step continuity errors : sum local = 0.00097041, global = 1.79432e-17, cumulative = -4.38306e-16
Pressure gradient source: uncorrected Ubar = 0.999728, pressure gradient = 5.34862
smoothSolver:  Solving for omega, Initial residual = 0.0155442, Final residual = 0.00101285, No Iterations 4
smoothSolver:  Solving for k, Initial residual = 0.0058064, Final residual = 0.00046202, No Iterations 6
ExecutionTime = 0.229725 s  ClockTime = 0 s

Time = 83s

smoothSolver:  Solving for Ux, Initial residual = 0.00363272, Final residual = 0.000348256, No Iterations 5
smoothSolver:  Solving for Uy, Initial residual = 0.0324448, Final residual = 0.00237213, No Iterations 6
Pressure gradient source: uncorrected Ubar = 1.00032, pressure gradient = 4.60104
GAMG:  Solving for p, Initial residual = 0.0389146, Final residual = 0.00183618, No Iterations 3
time step continuity errors : sum local = 0.00173259, global = 3.19636e-17, cumulative = -4.06343e-16
Pressure gradient source: uncorrected Ubar = 0.999997, pressure gradient = 5.35529
smoothSolver:  Solving for omega, Initial residual = 0.0243575, Final residual = 0.00153477, No Iterations 3
smoothSolver:  Solving for k, Initial residual = 0.00572585, Final residual = 0.000458961, No Iterations 6
ExecutionTime = 0.232216 s  ClockTime = 0 s

Time = 84s

smoothSolver:  Solving for Ux, Initial residual = 0.00360003, Final residual = 0.000346606, No Iterations 5
smoothSolver:  Solving for Uy, Initial residual = 0.036465, Final residual = 0.00259249, No Iterations 6
Pressure gradient source: uncorrected Ubar = 1.00176, pressure gradient = 1.2228
GAMG:  Solving for p, Initial residual = 0.0170785, Final residual = 0.00158371, No Iterations 3
time step continuity errors : sum local = 0.00145031, global = -3.60701e-17, cumulative = -4.42413e-16
Pressure gradient source: uncorrected Ubar = 1.00024, pressure gradient = 4.78234
smoothSolver:  Solving for omega, Initial residual = 0.0223569, Final residual = 0.00160967, No Iterations 3
smoothSolver:  Solving for k, Initial residual = 0.00566452, Final residual = 0.000460731, No Iterations 6
ExecutionTime = 0.234793 s  ClockTime = 0 s

Time = 85s

smoothSolver:  Solving for Ux, Initial residual = 0.00357986, Final residual = 0.000345877, No Iterations 5
smoothSolver:  Solving for Uy, Initial residual = 0.0126831, Final residual = 0.000844411, No Iterations 6
Pressure gradient source: uncorrected Ubar = 1.00099, pressure gradient = 2.36037
GAMG:  Solving for p, Initial residual = 0.0878285, Final residual = 0.00848431, No Iterations 2
time step continuity errors : sum local = 0.00152741, global = -9.02192e-17, cumulative = -5.32632e-16
Pressure gradient source: uncorrected Ubar = 1.00008, pressure gradient = 4.59831
smoothSolver:  Solving for omega, Initial residual = 0.0108867, Final residual = 0.00106598, No Iterations 4
smoothSolver:  Solving for k, Initial residual = 0.00565032, Final residual = 0.000454575, No Iterations 6
ExecutionTime = 0.237248 s  ClockTime = 0 s

Time = 86s

smoothSolver:  Solving for Ux, Initial residual = 0.00355346, Final residual = 0.000343988, No Iterations 5
smoothSolver:  Solving for Uy, Initial residual = 0.0169223, Final residual = 0.00114925, No Iterations 6
Pressure gradient source: uncorrected Ubar = 0.999678, pressure gradient = 5.4163
GAMG:  Solving for p, Initial residual = 0.100249, Final residual = 0.00379251, No Iterations 3
time step continuity errors : sum local = 0.000857499, global = 5.60871e-17, cumulative = -4.76545e-16
Pressure gradient source: uncorrected Ubar = 0.999856, pressure gradient = 4.9644
smoothSolver:  Solving for omega, Initial residual = 0.0126326, Final residual = 0.000945908, No Iterations 4
smoothSolver:  Solving for k, Initial residual = 0.00572491, Final residual = 0.000455508, No Iterations 6
ExecutionTime = 0.239759 s  ClockTime = 0 s

Time = 87s

smoothSolver:  Solving for Ux, Initial residual = 0.00352516, Final residual = 0.000341489, No Iterations 5
smoothSolver:  Solving for Uy, Initial residual = 0.0331173, Final residual = 0.00239063, No Iterations 6
Pressure gradient source: uncorrected Ubar = 1.00072, pressure gradient = 3.16771
GAMG:  Solving for p, Initial residual = 0.0296447, Final residual = 0.00246032, No Iterations 2
time step continuity errors : sum local = 0.00292886, global = -2.10064e-18, cumulative = -4.78646e-16
Pressure gradient source: uncorrected Ubar = 1.00007, pressure gradient = 4.80152
smoothSolver:  Solving for omega, Initial residual = 0.0154594, Final residual = 0.00148172, No Iterations 3
smoothSolver:  Solving for k, Initial residual = 0.00559146, Final residual = 0.000452626, No Iterations 6
ExecutionTime = 0.242218 s  ClockTime = 0 s

Time = 88s

smoothSolver:  Solving for Ux, Initial residual = 0.00349612, Final residual = 0.000339938, No Iterations 5
smoothSolver:  Solving for Uy, Initial residual = 0.0272669, Final residual = 0.00195742, No Iterations 6
Pressure gradient source: uncorrected Ubar = 1.0017, pressure gradient = 0.425352
GAMG:  Solving for p, Initial residual = 0.0198969, Final residual = 0.00174226, No Iterations 4
time step continuity errors : sum local = 0.00104525, global = -3.68629e-18, cumulative = -4.82332e-16
Pressure gradient source: uncorrected Ubar = 1.00021, pressure gradient = 4.26893
smoothSolver:  Solving for omega, Initial residual = 0.0103487, Final residual = 0.00102893, No Iterations 4
smoothSolver:  Solving for k, Initial residual = 0.00559329, Final residual = 0.000453515, No Iterations 6
ExecutionTime = 0.244781 s  ClockTime = 0 s

Time = 89s

smoothSolver:  Solving for Ux, Initial residual = 0.00348078, Final residual = 0.0003395, No Iterations 5
smoothSolver:  Solving for Uy, Initial residual = 0.0197587, Final residual = 0.00142118, No Iterations 6
Pressure gradient source: uncorrected Ubar = 0.999841, pressure gradient = 4.68789
GAMG:  Solving for p, Initial residual = 0.0314224, Final residual = 0.00133574, No Iterations 3
time step continuity errors : sum local = 0.00056604, global = 5.87261e-17, cumulative = -4.23606e-16
Pressure gradient source: uncorrected Ubar = 0.999895, pressure gradient = 4.54602
smoothSolver:  Solving for omega, Initial residual = 0.00708072, Final residual = 0.000612959, No Iterations 5
smoothSolver:  Solving for k, Initial residual = 0.00560503, Final residual = 0.000451076, No Iterations 6
ExecutionTime = 0.247299 s  ClockTime = 0 s

Time = 90s

[...]
smoothSolver:  Solving for k, Initial residual = 1.00175e-05, Final residual = 6.26069e-06, No Iterations 1
ExecutionTime = 11.1313 s  ClockTime = 11 s

Time = 4278s

smoothSolver:  Solving for Ux, Initial residual = 9.00649e-06, Final residual = 9.00649e-06, No Iterations 0
smoothSolver:  Solving for Uy, Initial residual = 0.000152193, Final residual = 1.35293e-05, No Iterations 5
Pressure gradient source: uncorrected Ubar = 1, pressure gradient = 0.00340194
GAMG:  Solving for p, Initial residual = 1.22546e-05, Final residual = 1.05207e-06, No Iterations 5
time step continuity errors : sum local = 2.67719e-11, global = -3.50761e-19, cumulative = 4.91441e-18
Pressure gradient source: uncorrected Ubar = 1, pressure gradient = 0.0034019
smoothSolver:  Solving for omega, Initial residual = 8.39751e-06, Final residual = 8.39751e-06, No Iterations 0
smoothSolver:  Solving for k, Initial residual = 9.92315e-06, Final residual = 9.92315e-06, No Iterations 0
ExecutionTime = 11.1338 s  ClockTime = 11 s

Time = 4279s

smoothSolver:  Solving for Ux, Initial residual = 9.00316e-06, Final residual = 9.00316e-06, No Iterations 0
smoothSolver:  Solving for Uy, Initial residual = 0.000141255, Final residual = 1.21907e-05, No Iterations 5
Pressure gradient source: uncorrected Ubar = 1, pressure gradient = 0.0034019
GAMG:  Solving for p, Initial residual = 9.50113e-06, Final residual = 8.19992e-07, No Iterations 7
time step continuity errors : sum local = 2.09899e-11, global = -4.3244e-18, cumulative = 5.90012e-19
Pressure gradient source: uncorrected Ubar = 1, pressure gradient = 0.00340191
smoothSolver:  Solving for omega, Initial residual = 8.39672e-06, Final residual = 8.39672e-06, No Iterations 0
smoothSolver:  Solving for k, Initial residual = 9.94465e-06, Final residual = 9.94465e-06, No Iterations 0
ExecutionTime = 11.1364 s  ClockTime = 11 s

Time = 4280s

smoothSolver:  Solving for Ux, Initial residual = 8.9978e-06, Final residual = 8.9978e-06, No Iterations 0
smoothSolver:  Solving for Uy, Initial residual = 0.000132686, Final residual = 1.12841e-05, No Iterations 5
Pressure gradient source: uncorrected Ubar = 1, pressure gradient = 0.00340191
GAMG:  Solving for p, Initial residual = 8.14575e-06, Final residual = 8.49098e-07, No Iterations 9
time step continuity errors : sum local = 2.2111e-11, global = 3.35576e-18, cumulative = 3.94577e-18
Pressure gradient source: uncorrected Ubar = 1, pressure gradient = 0.00340191
smoothSolver:  Solving for omega, Initial residual = 8.39597e-06, Final residual = 8.39597e-06, No Iterations 0
smoothSolver:  Solving for k, Initial residual = 9.96705e-06, Final residual = 9.96705e-06, No Iterations 0
ExecutionTime = 11.139 s  ClockTime = 11 s

Time = 4281s

smoothSolver:  Solving for Ux, Initial residual = 8.99238e-06, Final residual = 8.99238e-06, No Iterations 0
smoothSolver:  Solving for Uy, Initial residual = 0.000125992, Final residual = 1.06709e-05, No Iterations 5
Pressure gradient source: uncorrected Ubar = 1, pressure gradient = 0.00340191
GAMG:  Solving for p, Initial residual = 7.53525e-06, Final residual = 9.96726e-07, No Iterations 7
time step continuity errors : sum local = 2.60735e-11, global = -3.37792e-18, cumulative = 5.67849e-19
Pressure gradient source: uncorrected Ubar = 1, pressure gradient = 0.00340191
smoothSolver:  Solving for omega, Initial residual = 8.39526e-06, Final residual = 8.39526e-06, No Iterations 0
smoothSolver:  Solving for k, Initial residual = 9.99183e-06, Final residual = 9.99183e-06, No Iterations 0
ExecutionTime = 11.1416 s  ClockTime = 11 s

Time = 4282s

smoothSolver:  Solving for Ux, Initial residual = 8.98693e-06, Final residual = 8.98693e-06, No Iterations 0
smoothSolver:  Solving for Uy, Initial residual = 0.000121262, Final residual = 1.026e-05, No Iterations 5
Pressure gradient source: uncorrected Ubar = 1, pressure gradient = 0.00340191
GAMG:  Solving for p, Initial residual = 7.25388e-06, Final residual = 8.33343e-07, No Iterations 7
time step continuity errors : sum local = 2.28209e-11, global = -2.50305e-18, cumulative = -1.93521e-18
Pressure gradient source: uncorrected Ubar = 1, pressure gradient = 0.00340192
smoothSolver:  Solving for omega, Initial residual = 8.39457e-06, Final residual = 8.39457e-06, No Iterations 0
smoothSolver:  Solving for k, Initial residual = 1.00185e-05, Final residual = 6.2641e-06, No Iterations 1
ExecutionTime = 11.1441 s  ClockTime = 11 s

Time = 4283s

smoothSolver:  Solving for Ux, Initial residual = 8.98138e-06, Final residual = 8.98138e-06, No Iterations 0
smoothSolver:  Solving for Uy, Initial residual = 0.000139813, Final residual = 1.22364e-05, No Iterations 5
Pressure gradient source: uncorrected Ubar = 1, pressure gradient = 0.00340192
GAMG:  Solving for p, Initial residual = 1.14387e-05, Final residual = 9.28052e-07, No Iterations 5
time step continuity errors : sum local = 2.35384e-11, global = 8.50838e-18, cumulative = 6.57317e-18
Pressure gradient source: uncorrected Ubar = 1, pressure gradient = 0.00340188
smoothSolver:  Solving for omega, Initial residual = 8.39386e-06, Final residual = 8.39386e-06, No Iterations 0
smoothSolver:  Solving for k, Initial residual = 9.9505e-06, Final residual = 9.9505e-06, No Iterations 0
ExecutionTime = 11.1466 s  ClockTime = 11 s

Time = 4284s

smoothSolver:  Solving for Ux, Initial residual = 8.97798e-06, Final residual = 8.97798e-06, No Iterations 0
smoothSolver:  Solving for Uy, Initial residual = 0.00012889, Final residual = 1.09857e-05, No Iterations 5
Pressure gradient source: uncorrected Ubar = 1, pressure gradient = 0.00340188
GAMG:  Solving for p, Initial residual = 8.87431e-06, Final residual = 8.22719e-07, No Iterations 5
time step continuity errors : sum local = 2.04261e-11, global = -4.69291e-18, cumulative = 1.88026e-18
Pressure gradient source: uncorrected Ubar = 1, pressure gradient = 0.00340188
smoothSolver:  Solving for omega, Initial residual = 8.39306e-06, Final residual = 8.39306e-06, No Iterations 0
smoothSolver:  Solving for k, Initial residual = 9.98182e-06, Final residual = 9.98182e-06, No Iterations 0
ExecutionTime = 11.149 s  ClockTime = 11 s

Time = 4285s

smoothSolver:  Solving for Ux, Initial residual = 8.97256e-06, Final residual = 8.97256e-06, No Iterations 0
smoothSolver:  Solving for Uy, Initial residual = 0.000122085, Final residual = 1.02155e-05, No Iterations 5
Pressure gradient source: uncorrected Ubar = 1, pressure gradient = 0.00340188
GAMG:  Solving for p, Initial residual = 7.7551e-06, Final residual = 9.35198e-07, No Iterations 5
time step continuity errors : sum local = 2.37666e-11, global = -1.98576e-19, cumulative = 1.68168e-18
Pressure gradient source: uncorrected Ubar = 1, pressure gradient = 0.00340189
smoothSolver:  Solving for omega, Initial residual = 8.3923e-06, Final residual = 8.3923e-06, No Iterations 0
smoothSolver:  Solving for k, Initial residual = 1.00176e-05, Final residual = 6.27001e-06, No Iterations 1
ExecutionTime = 11.1515 s  ClockTime = 11 s

Time = 4286s

smoothSolver:  Solving for Ux, Initial residual = 8.96686e-06, Final residual = 8.96686e-06, No Iterations 0
smoothSolver:  Solving for Uy, Initial residual = 0.000136574, Final residual = 1.18572e-05, No Iterations 5
Pressure gradient source: uncorrected Ubar = 1, pressure gradient = 0.00340189
GAMG:  Solving for p, Initial residual = 1.11904e-05, Final residual = 7.17112e-07, No Iterations 5
time step continuity errors : sum local = 1.74979e-11, global = -5.2156e-18, cumulative = -3.53392e-18
Pressure gradient source: uncorrected Ubar = 1, pressure gradient = 0.00340185
smoothSolver:  Solving for omega, Initial residual = 8.39152e-06, Final residual = 8.39152e-06, No Iterations 0
smoothSolver:  Solving for k, Initial residual = 9.97101e-06, Final residual = 9.97101e-06, No Iterations 0
ExecutionTime = 11.1539 s  ClockTime = 11 s

Time = 4287s

smoothSolver:  Solving for Ux, Initial residual = 8.96331e-06, Final residual = 8.96331e-06, No Iterations 0
smoothSolver:  Solving for Uy, Initial residual = 0.000124208, Final residual = 1.03811e-05, No Iterations 5
Pressure gradient source: uncorrected Ubar = 1, pressure gradient = 0.00340185
GAMG:  Solving for p, Initial residual = 8.66338e-06, Final residual = 4.46081e-07, No Iterations 5
time step continuity errors : sum local = 1.10544e-11, global = -7.73647e-18, cumulative = -1.12704e-17
Pressure gradient source: uncorrected Ubar = 1, pressure gradient = 0.00340186
smoothSolver:  Solving for omega, Initial residual = 8.39067e-06, Final residual = 8.39067e-06, No Iterations 0
smoothSolver:  Solving for k, Initial residual = 1.00116e-05, Final residual = 6.27597e-06, No Iterations 1
ExecutionTime = 11.1569 s  ClockTime = 11 s

Time = 4288s

smoothSolver:  Solving for Ux, Initial residual = 8.95746e-06, Final residual = 8.95746e-06, No Iterations 0
smoothSolver:  Solving for Uy, Initial residual = 0.0001386, Final residual = 1.19516e-05, No Iterations 5
Pressure gradient source: uncorrected Ubar = 1, pressure gradient = 0.00340186
GAMG:  Solving for p, Initial residual = 1.13737e-05, Final residual = 1.10911e-06, No Iterations 5
time step continuity errors : sum local = 2.49692e-11, global = -4.2343e-18, cumulative = -1.55047e-17
Pressure gradient source: uncorrected Ubar = 1, pressure gradient = 0.00340183
smoothSolver:  Solving for omega, Initial residual = 8.38981e-06, Final residual = 8.38981e-06, No Iterations 0
smoothSolver:  Solving for k, Initial residual = 9.94091e-06, Final residual = 9.94091e-06, No Iterations 0
ExecutionTime = 11.1598 s  ClockTime = 11 s

Time = 4289s

smoothSolver:  Solving for Ux, Initial residual = 8.95376e-06, Final residual = 8.95376e-06, No Iterations 0
smoothSolver:  Solving for Uy, Initial residual = 0.000121996, Final residual = 1.00571e-05, No Iterations 5
Pressure gradient source: uncorrected Ubar = 1, pressure gradient = 0.00340183
GAMG:  Solving for p, Initial residual = 9.10671e-06, Final residual = 8.8497e-07, No Iterations 5
time step continuity errors : sum local = 2.08794e-11, global = 3.69903e-18, cumulative = -1.18057e-17
Pressure gradient source: uncorrected Ubar = 1, pressure gradient = 0.00340183
smoothSolver:  Solving for omega, Initial residual = 8.3889e-06, Final residual = 8.3889e-06, No Iterations 0
smoothSolver:  Solving for k, Initial residual = 9.9834e-06, Final residual = 9.9834e-06, No Iterations 0
ExecutionTime = 11.1624 s  ClockTime = 11 s

Time = 4290s

smoothSolver:  Solving for Ux, Initial residual = 8.9481e-06, Final residual = 8.9481e-06, No Iterations 0
smoothSolver:  Solving for Uy, Initial residual = 0.000113184, Final residual = 9.14567e-06, No Iterations 5
Pressure gradient source: uncorrected Ubar = 1, pressure gradient = 0.00340183
GAMG:  Solving for p, Initial residual = 7.88007e-06, Final residual = 9.90918e-07, No Iterations 7
time step continuity errors : sum local = 2.43763e-11, global = 1.07817e-18, cumulative = -1.07275e-17
Pressure gradient source: uncorrected Ubar = 1, pressure gradient = 0.00340184
smoothSolver:  Solving for omega, Initial residual = 8.38804e-06, Final residual = 8.38804e-06, No Iterations 0
smoothSolver:  Solving for k, Initial residual = 1.00283e-05, Final residual = 6.29007e-06, No Iterations 1
ExecutionTime = 11.165 s  ClockTime = 11 s

Time = 4291s

smoothSolver:  Solving for Ux, Initial residual = 8.94193e-06, Final residual = 8.94193e-06, No Iterations 0
smoothSolver:  Solving for Uy, Initial residual = 0.000122512, Final residual = 1.03443e-05, No Iterations 5
Pressure gradient source: uncorrected Ubar = 1, pressure gradient = 0.00340184
GAMG:  Solving for p, Initial residual = 1.04866e-05, Final residual = 6.6691e-07, No Iterations 5
time step continuity errors : sum local = 1.63291e-11, global = 1.22389e-17, cumulative = 1.5114e-18
Pressure gradient source: uncorrected Ubar = 1, pressure gradient = 0.00340181
smoothSolver:  Solving for omega, Initial residual = 8.38717e-06, Final residual = 8.38717e-06, No Iterations 0
smoothSolver:  Solving for k, Initial residual = 9.98038e-06, Final residual = 9.98038e-06, No Iterations 0
ExecutionTime = 11.1676 s  ClockTime = 11 s

Time = 4292s

smoothSolver:  Solving for Ux, Initial residual = 8.93802e-06, Final residual = 8.93802e-06, No Iterations 0
smoothSolver:  Solving for Uy, Initial residual = 0.000113029, Final residual = 9.22463e-06, No Iterations 5
Pressure gradient source: uncorrected Ubar = 1, pressure gradient = 0.00340181
GAMG:  Solving for p, Initial residual = 8.40975e-06, Final residual = 5.01999e-07, No Iterations 5
time step continuity errors : sum local = 1.21005e-11, global = 4.96883e-18, cumulative = 6.48023e-18
Pressure gradient source: uncorrected Ubar = 1, pressure gradient = 0.00340181
smoothSolver:  Solving for omega, Initial residual = 8.38625e-06, Final residual = 8.38625e-06, No Iterations 0
smoothSolver:  Solving for k, Initial residual = 1.00245e-05, Final residual = 6.29326e-06, No Iterations 1
ExecutionTime = 11.17 s  ClockTime = 11 s

Time = 4293s

smoothSolver:  Solving for Ux, Initial residual = 8.93169e-06, Final residual = 8.93169e-06, No Iterations 0
smoothSolver:  Solving for Uy, Initial residual = 0.000124672, Final residual = 1.05137e-05, No Iterations 5
Pressure gradient source: uncorrected Ubar = 1, pressure gradient = 0.00340181
GAMG:  Solving for p, Initial residual = 1.0592e-05, Final residual = 1.01282e-06, No Iterations 4
time step continuity errors : sum local = 2.30662e-11, global = -1.55191e-18, cumulative = 4.92832e-18
Pressure gradient source: uncorrected Ubar = 1, pressure gradient = 0.00340178
smoothSolver:  Solving for omega, Initial residual = 8.38532e-06, Final residual = 8.38532e-06, No Iterations 0
smoothSolver:  Solving for k, Initial residual = 9.97761e-06, Final residual = 9.97761e-06, No Iterations 0
ExecutionTime = 11.1724 s  ClockTime = 11 s

Time = 4294s

smoothSolver:  Solving for Ux, Initial residual = 8.92764e-06, Final residual = 8.92764e-06, No Iterations 0
smoothSolver:  Solving for Uy, Initial residual = 0.000110067, Final residual = 8.96694e-06, No Iterations 5
Pressure gradient source: uncorrected Ubar = 1, pressure gradient = 0.00340178
GAMG:  Solving for p, Initial residual = 8.66121e-06, Final residual = 8.24672e-07, No Iterations 6
time step continuity errors : sum local = 1.99467e-11, global = -3.57244e-18, cumulative = 1.35587e-18
Pressure gradient source: uncorrected Ubar = 1, pressure gradient = 0.00340179
smoothSolver:  Solving for omega, Initial residual = 8.38435e-06, Final residual = 8.38435e-06, No Iterations 0
smoothSolver:  Solving for k, Initial residual = 1.00216e-05, Final residual = 6.29733e-06, No Iterations 1
ExecutionTime = 11.175 s  ClockTime = 11 s

Time = 4295s

smoothSolver:  Solving for Ux, Initial residual = 8.92112e-06, Final residual = 8.92112e-06, No Iterations 0
smoothSolver:  Solving for Uy, Initial residual = 0.00011936, Final residual = 9.90457e-06, No Iterations 5
Pressure gradient source: uncorrected Ubar = 1, pressure gradient = 0.00340179
GAMG:  Solving for p, Initial residual = 1.04782e-05, Final residual = 9.63892e-07, No Iterations 4
time step continuity errors : sum local = 2.23996e-11, global = 6.76175e-18, cumulative = 8.11762e-18
Pressure gradient source: uncorrected Ubar = 1, pressure gradient = 0.00340176
smoothSolver:  Solving for omega, Initial residual = 8.38338e-06, Final residual = 8.38338e-06, No Iterations 0
smoothSolver:  Solving for k, Initial residual = 9.97736e-06, Final residual = 9.97736e-06, No Iterations 0
ExecutionTime = 11.1774 s  ClockTime = 11 s

Time = 4296s

smoothSolver:  Solving for Ux, Initial residual = 8.91691e-06, Final residual = 8.91691e-06, No Iterations 0
smoothSolver:  Solving for Uy, Initial residual = 0.000107191, Final residual = 8.64419e-06, No Iterations 5
Pressure gradient source: uncorrected Ubar = 1, pressure gradient = 0.00340176
GAMG:  Solving for p, Initial residual = 8.43925e-06, Final residual = 9.62105e-07, No Iterations 4
time step continuity errors : sum local = 2.25139e-11, global = 1.67448e-18, cumulative = 9.7921e-18
Pressure gradient source: uncorrected Ubar = 1, pressure gradient = 0.00340177
smoothSolver:  Solving for omega, Initial residual = 8.38239e-06, Final residual = 8.38239e-06, No Iterations 0
smoothSolver:  Solving for k, Initial residual = 1.00212e-05, Final residual = 6.30189e-06, No Iterations 1
ExecutionTime = 11.1798 s  ClockTime = 11 s

Time = 4297s

smoothSolver:  Solving for Ux, Initial residual = 8.91018e-06, Final residual = 8.91018e-06, No Iterations 0
smoothSolver:  Solving for Uy, Initial residual = 0.00011506, Final residual = 9.4759e-06, No Iterations 5
Pressure gradient source: uncorrected Ubar = 1, pressure gradient = 0.00340177
GAMG:  Solving for p, Initial residual = 1.03836e-05, Final residual = 9.17681e-07, No Iterations 4
time step continuity errors : sum local = 2.15246e-11, global = -3.22159e-18, cumulative = 6.57051e-18
Pressure gradient source: uncorrected Ubar = 1, pressure gradient = 0.00340174
smoothSolver:  Solving for omega, Initial residual = 8.38138e-06, Final residual = 8.38138e-06, No Iterations 0
smoothSolver:  Solving for k, Initial residual = 9.97331e-06, Final residual = 9.97331e-06, No Iterations 0
ExecutionTime = 11.1822 s  ClockTime = 11 s

Time = 4298s

smoothSolver:  Solving for Ux, Initial residual = 8.90581e-06, Final residual = 8.90581e-06, No Iterations 0
smoothSolver:  Solving for Uy, Initial residual = 0.000102322, Final residual = 8.28976e-06, No Iterations 5
Pressure gradient source: uncorrected Ubar = 1, pressure gradient = 0.00340174
GAMG:  Solving for p, Initial residual = 8.41572e-06, Final residual = 9.96281e-07, No Iterations 6
time step continuity errors : sum local = 2.34426e-11, global = 1.09067e-18, cumulative = 7.66118e-18
Pressure gradient source: uncorrected Ubar = 1, pressure gradient = 0.00340175
smoothSolver:  Solving for omega, Initial residual = 8.38036e-06, Final residual = 8.38036e-06, No Iterations 0
smoothSolver:  Solving for k, Initial residual = 1.00166e-05, Final residual = 6.30378e-06, No Iterations 1
ExecutionTime = 11.1847 s  ClockTime = 11 s

Time = 4299s

smoothSolver:  Solving for Ux, Initial residual = 8.89888e-06, Final residual = 8.89888e-06, No Iterations 0
smoothSolver:  Solving for Uy, Initial residual = 0.00010915, Final residual = 8.91022e-06, No Iterations 5
Pressure gradient source: uncorrected Ubar = 1, pressure gradient = 0.00340175
GAMG:  Solving for p, Initial residual = 1.03665e-05, Final residual = 9.87307e-07, No Iterations 6
time step continuity errors : sum local = 2.30828e-11, global = 1.3676e-18, cumulative = 9.02879e-18
Pressure gradient source: uncorrected Ubar = 1, pressure gradient = 0.00340173
smoothSolver:  Solving for omega, Initial residual = 8.37934e-06, Final residual = 8.37934e-06, No Iterations 0
smoothSolver:  Solving for k, Initial residual = 9.96994e-06, Final residual = 9.96994e-06, No Iterations 0
ExecutionTime = 11.1873 s  ClockTime = 11 s

Time = 4300s

smoothSolver:  Solving for Ux, Initial residual = 8.89437e-06, Final residual = 8.89437e-06, No Iterations 0
smoothSolver:  Solving for Uy, Initial residual = 9.74585e-05, Final residual = 8.0316e-06, No Iterations 5
Pressure gradient source: uncorrected Ubar = 1, pressure gradient = 0.00340173
GAMG:  Solving for p, Initial residual = 8.79755e-06, Final residual = 9.95195e-07, No Iterations 7
time step continuity errors : sum local = 2.32968e-11, global = -1.00266e-18, cumulative = 8.02612e-18
Pressure gradient source: uncorrected Ubar = 1, pressure gradient = 0.00340174
smoothSolver:  Solving for omega, Initial residual = 8.3783e-06, Final residual = 8.3783e-06, No Iterations 0
smoothSolver:  Solving for k, Initial residual = 1.0013e-05, Final residual = 6.30603e-06, No Iterations 1
ExecutionTime = 11.1898 s  ClockTime = 11 s


SIMPLE solution converged in 4300 iterations

End

