/*---------------------------------------------------------------------------*\
  =========                 |
  \\      /  F ield         | OpenFOAM: The Open Source CFD Toolbox
   \\    /   O peration     | Website:  https://openfoam.org
    \\  /    A nd           | Version:  10
     \\/     M anipulation  |
\*---------------------------------------------------------------------------*/
Build  : 10-e450dce21ea5
Exec   : blockMesh
Date   : Feb 20 2023
Time   : 14:17:34
Host   : "w530-R9YK46P"
PID    : 19031
I/O    : uncollated
Case   : /home/jdmezazeron/gitDanielMezaZ/turbulenceVisualized/Data/SimulationFiles/K37_Re6584
nProcs : 1
sigFpe : Enabling floating point exception trapping (FOAM_SIGFPE).
fileModificationChecking : Monitoring run-time modified files using timeStampMaster (fileModificationSkew 10)
allowSystemOperations : Allowing user-supplied system call operations

// * * * * * * * * * * * * * * * * * * * * * * * * * * * * * * * * * * * * * //
Create time

Deleting polyMesh directory
    "/home/jdmezazeron/gitDanielMezaZ/turbulenceVisualized/Data/SimulationFiles/K37_Re6584/constant/polyMesh"
Reading "blockMeshDict"

Creating block mesh from
    "system/blockMeshDict"
Creating block edges
No non-planar block faces defined
Creating topology blocks
Creating topology patches

Creating block mesh topology

Check topology

	Basic statistics
		Number of internal faces : 0
		Number of boundary faces : 6
		Number of defined boundary faces : 6
		Number of undefined boundary faces : 0
	Checking patch -> block consistency

Creating block offsets
Creating merge list .

Creating polyMesh from blockMesh
Creating patches
Creating cells
Creating points with scale 1
    Block 0 cell size :
        i : 0.5
        j : 0.00461374 .. 0.018455
        k : 2

Detected cyclic patches; ordering boundary faces

Writing polyMesh
----------------
Mesh Information
----------------
  boundingBox: (-1 0 -1) (1 1 1)
  nPoints: 1010
  nCells: 400
  nFaces: 1704
  nInternalFaces: 696
----------------
Patches
----------------
  patch 0 (start: 696 size: 100) name: inlet
  patch 1 (start: 796 size: 100) name: outlet
  patch 2 (start: 896 size: 4) name: fixedWalls-bottom
  patch 3 (start: 900 size: 4) name: fixedWalls-top
  patch 4 (start: 904 size: 800) name: frontAndBack

End

/*---------------------------------------------------------------------------*\
  =========                 |
  \\      /  F ield         | OpenFOAM: The Open Source CFD Toolbox
   \\    /   O peration     | Website:  https://openfoam.org
    \\  /    A nd           | Version:  10
     \\/     M anipulation  |
\*---------------------------------------------------------------------------*/
Build  : 10-e450dce21ea5
Exec   : simpleFoam
Date   : Feb 20 2023
Time   : 14:17:34
Host   : "w530-R9YK46P"
PID    : 19032
I/O    : uncollated
Case   : /home/jdmezazeron/gitDanielMezaZ/turbulenceVisualized/Data/SimulationFiles/K37_Re6584
nProcs : 1
sigFpe : Enabling floating point exception trapping (FOAM_SIGFPE).
fileModificationChecking : Monitoring run-time modified files using timeStampMaster (fileModificationSkew 10)
allowSystemOperations : Allowing user-supplied system call operations

// * * * * * * * * * * * * * * * * * * * * * * * * * * * * * * * * * * * * * //
Create time

Create mesh for time = 0


SIMPLE: Convergence criteria found
        U: tolerance 0.0001
        p: tolerance 0.01
        omega: tolerance 0.0001

Reading field p

Reading field U

Reading/calculating face flux field phi

Selecting viscosity model Newtonian
Selecting turbulence model type RAS
Selecting RAS turbulence model kOmegaSST
Selecting patchDistMethod meshWave
RAS
{
    RASModel        kOmegaSST;
    turbulence      on;
    printCoeffs     on;
    alphaK1         0.85;
    alphaK2         1;
    alphaOmega1     0.5;
    alphaOmega2     0.856;
    gamma1          0.555556;
    gamma2          0.44;
    beta1           0.075;
    beta2           0.0828;
    betaStar        0.09;
    a1              0.31;
    b1              1;
    c1              10;
    F3              false;
}

No MRF models present

--> FOAM Warning : Creating fvModels from "system/fvOptions" rather than constant/fvModels
No fvModels present
--> FOAM Warning : Creating fvConstraints from "system/fvOptions"

Selecting finite volume constraint type meanVelocityForce
    Name: momentumSource
    - selecting all cells
    - selected 400 cell(s) with volume 4
    Initial pressure gradient = 0


Starting time loop

turbulenceFields stressComponents: storing fields:
    R

Time = 1s

smoothSolver:  Solving for Ux, Initial residual = 0, Final residual = 0, No Iterations 0
smoothSolver:  Solving for Uy, Initial residual = 0, Final residual = 0, No Iterations 0
Pressure gradient source: uncorrected Ubar = 0, pressure gradient = 1080.9
GAMG:  Solving for p, Initial residual = 0.999996, Final residual = 0.0591602, No Iterations 3
time step continuity errors : sum local = 8.90967e-17, global = 1.29206e-18, cumulative = 1.29206e-18
Pressure gradient source: uncorrected Ubar = 0.884653, pressure gradient = 124.679
smoothSolver:  Solving for omega, Initial residual = 0.257119, Final residual = 0.0155351, No Iterations 3
smoothSolver:  Solving for k, Initial residual = 1, Final residual = 0.0934718, No Iterations 4
ExecutionTime = 0.014249 s  ClockTime = 0 s

Time = 2s

smoothSolver:  Solving for Ux, Initial residual = 0.993639, Final residual = 0.0969839, No Iterations 6
smoothSolver:  Solving for Uy, Initial residual = 1, Final residual = 0.0920293, No Iterations 5
Pressure gradient source: uncorrected Ubar = 67.7454, pressure gradient = -924.427
GAMG:  Solving for p, Initial residual = 1, Final residual = 0.0996139, No Iterations 15
time step continuity errors : sum local = 0.061207, global = -7.01479e-17, cumulative = -6.88558e-17
Pressure gradient source: uncorrected Ubar = 9.71676, pressure gradient = -12.3316
smoothSolver:  Solving for omega, Initial residual = 0.127478, Final residual = 0.00440777, No Iterations 1
smoothSolver:  Solving for k, Initial residual = 0.504686, Final residual = 0.0318485, No Iterations 2
ExecutionTime = 0.017383 s  ClockTime = 0 s

Time = 3s

smoothSolver:  Solving for Ux, Initial residual = 0.333591, Final residual = 0.0263126, No Iterations 6
smoothSolver:  Solving for Uy, Initial residual = 0.653852, Final residual = 0.0224809, No Iterations 2
Pressure gradient source: uncorrected Ubar = -1.61983, pressure gradient = 94.7183
GAMG:  Solving for p, Initial residual = 0.178581, Final residual = 0.0142386, No Iterations 9
time step continuity errors : sum local = 0.0219906, global = -2.79555e-17, cumulative = -9.68113e-17
Pressure gradient source: uncorrected Ubar = 0.67851, pressure gradient = 0.804949
smoothSolver:  Solving for omega, Initial residual = 0.0850419, Final residual = 0.00427457, No Iterations 1
smoothSolver:  Solving for k, Initial residual = 0.545713, Final residual = 0.0257699, No Iterations 2
ExecutionTime = 0.020178 s  ClockTime = 0 s

Time = 4s

smoothSolver:  Solving for Ux, Initial residual = 0.0790538, Final residual = 0.00697595, No Iterations 4
smoothSolver:  Solving for Uy, Initial residual = 0.373906, Final residual = 0.0324477, No Iterations 2
Pressure gradient source: uncorrected Ubar = 0.981307, pressure gradient = 1.2558
GAMG:  Solving for p, Initial residual = 0.0909856, Final residual = 0.00792267, No Iterations 10
time step continuity errors : sum local = 0.0306662, global = 2.17925e-17, cumulative = -7.50188e-17
Pressure gradient source: uncorrected Ubar = 0.996564, pressure gradient = 0.887823
smoothSolver:  Solving for omega, Initial residual = 0.0287559, Final residual = 0.00111078, No Iterations 2
smoothSolver:  Solving for k, Initial residual = 0.729059, Final residual = 0.0279658, No Iterations 2
ExecutionTime = 0.022896 s  ClockTime = 0 s

Time = 5s

smoothSolver:  Solving for Ux, Initial residual = 0.0836639, Final residual = 0.00825492, No Iterations 4
smoothSolver:  Solving for Uy, Initial residual = 0.419323, Final residual = 0.028753, No Iterations 2
Pressure gradient source: uncorrected Ubar = 0.967805, pressure gradient = 1.70534
GAMG:  Solving for p, Initial residual = 0.11333, Final residual = 0.0105727, No Iterations 12
time step continuity errors : sum local = 0.0352365, global = -3.49113e-17, cumulative = -1.0993e-16
Pressure gradient source: uncorrected Ubar = 0.996102, pressure gradient = 0.986793
smoothSolver:  Solving for omega, Initial residual = 0.10161, Final residual = 0.00278544, No Iterations 2
smoothSolver:  Solving for k, Initial residual = 0.666846, Final residual = 0.0627625, No Iterations 1
ExecutionTime = 0.025876 s  ClockTime = 0 s

Time = 6s

smoothSolver:  Solving for Ux, Initial residual = 0.0878743, Final residual = 0.00684198, No Iterations 4
smoothSolver:  Solving for Uy, Initial residual = 0.838204, Final residual = 0.0505814, No Iterations 2
Pressure gradient source: uncorrected Ubar = 1.01461, pressure gradient = 0.587301
GAMG:  Solving for p, Initial residual = 0.15888, Final residual = 0.0135968, No Iterations 9
time step continuity errors : sum local = 0.04041, global = 4.2067e-17, cumulative = -6.78631e-17
Pressure gradient source: uncorrected Ubar = 1.00234, pressure gradient = 0.922731
smoothSolver:  Solving for omega, Initial residual = 0.199411, Final residual = 0.00296929, No Iterations 2
bounding omega, min: -8.52892 max: 4567 average: 143.858
smoothSolver:  Solving for k, Initial residual = 0.408028, Final residual = 0.00357615, No Iterations 2
ExecutionTime = 0.02874 s  ClockTime = 0 s

Time = 7s

smoothSolver:  Solving for Ux, Initial residual = 0.0744934, Final residual = 0.00727606, No Iterations 3
smoothSolver:  Solving for Uy, Initial residual = 0.773839, Final residual = 0.066706, No Iterations 2
Pressure gradient source: uncorrected Ubar = 0.889945, pressure gradient = 4.72268
GAMG:  Solving for p, Initial residual = 0.279005, Final residual = 0.0249462, No Iterations 12
time step continuity errors : sum local = 0.0563344, global = 1.33899e-17, cumulative = -5.44732e-17
Pressure gradient source: uncorrected Ubar = 0.984576, pressure gradient = 1.45527
smoothSolver:  Solving for omega, Initial residual = 0.223439, Final residual = 0.002457, No Iterations 2
bounding omega, min: -29.8921 max: 4567 average: 156.524
smoothSolver:  Solving for k, Initial residual = 0.32392, Final residual = 0.00289273, No Iterations 2
ExecutionTime = 0.031667 s  ClockTime = 0 s

Time = 8s

smoothSolver:  Solving for Ux, Initial residual = 0.0781079, Final residual = 0.0055548, No Iterations 4
smoothSolver:  Solving for Uy, Initial residual = 0.57818, Final residual = 0.056509, No Iterations 2
Pressure gradient source: uncorrected Ubar = 0.914806, pressure gradient = 4.96828
GAMG:  Solving for p, Initial residual = 0.250194, Final residual = 0.0243567, No Iterations 8
time step continuity errors : sum local = 0.0773168, global = -5.03612e-17, cumulative = -1.04834e-16
Pressure gradient source: uncorrected Ubar = 0.991102, pressure gradient = 1.82217
smoothSolver:  Solving for omega, Initial residual = 0.214766, Final residual = 0.00305166, No Iterations 2
smoothSolver:  Solving for k, Initial residual = 0.27202, Final residual = 0.00567886, No Iterations 2
ExecutionTime = 0.03432 s  ClockTime = 0 s

Time = 9s

smoothSolver:  Solving for Ux, Initial residual = 0.0760385, Final residual = 0.00544808, No Iterations 4
smoothSolver:  Solving for Uy, Initial residual = 0.574717, Final residual = 0.0502859, No Iterations 2
Pressure gradient source: uncorrected Ubar = 0.865242, pressure gradient = 7.84718
GAMG:  Solving for p, Initial residual = 0.185213, Final residual = 0.01755, No Iterations 9
time step continuity errors : sum local = 0.0762624, global = -1.29291e-17, cumulative = -1.17763e-16
Pressure gradient source: uncorrected Ubar = 0.979782, pressure gradient = 2.72613
smoothSolver:  Solving for omega, Initial residual = 0.109028, Final residual = 0.00210453, No Iterations 2
smoothSolver:  Solving for k, Initial residual = 0.25539, Final residual = 0.0133397, No Iterations 2
ExecutionTime = 0.037021 s  ClockTime = 0 s

Time = 10s

smoothSolver:  Solving for Ux, Initial residual = 0.0590531, Final residual = 0.00440705, No Iterations 4
smoothSolver:  Solving for Uy, Initial residual = 0.579446, Final residual = 0.0554997, No Iterations 2
Pressure gradient source: uncorrected Ubar = 0.855019, pressure gradient = 9.69265
GAMG:  Solving for p, Initial residual = 0.272452, Final residual = 0.024052, No Iterations 10
time step continuity errors : sum local = 0.0707604, global = 6.8515e-17, cumulative = -4.92485e-17
Pressure gradient source: uncorrected Ubar = 0.979926, pressure gradient = 3.6907
smoothSolver:  Solving for omega, Initial residual = 0.122052, Final residual = 0.00368785, No Iterations 2
smoothSolver:  Solving for k, Initial residual = 0.183145, Final residual = 0.0146417, No Iterations 2
ExecutionTime = 0.039775 s  ClockTime = 0 s

Time = 11s

smoothSolver:  Solving for Ux, Initial residual = 0.0474769, Final residual = 0.00353543, No Iterations 4
smoothSolver:  Solving for Uy, Initial residual = 0.452269, Final residual = 0.0193354, No Iterations 3
Pressure gradient source: uncorrected Ubar = 0.915527, pressure gradient = 8.61995
GAMG:  Solving for p, Initial residual = 0.40158, Final residual = 0.0246588, No Iterations 8
time step continuity errors : sum local = 0.0793887, global = 7.76263e-17, cumulative = 2.83779e-17
Pressure gradient source: uncorrected Ubar = 0.987894, pressure gradient = 4.39711
smoothSolver:  Solving for omega, Initial residual = 0.128465, Final residual = 0.00478589, No Iterations 2
smoothSolver:  Solving for k, Initial residual = 0.151476, Final residual = 0.00717766, No Iterations 3
ExecutionTime = 0.042447 s  ClockTime = 0 s

Time = 12s

smoothSolver:  Solving for Ux, Initial residual = 0.0369974, Final residual = 0.00251127, No Iterations 4
smoothSolver:  Solving for Uy, Initial residual = 0.389707, Final residual = 0.0147253, No Iterations 3
Pressure gradient source: uncorrected Ubar = 0.949917, pressure gradient = 8.00222
GAMG:  Solving for p, Initial residual = 0.242312, Final residual = 0.0230877, No Iterations 10
time step continuity errors : sum local = 0.128606, global = -1.17094e-16, cumulative = -8.8716e-17
Pressure gradient source: uncorrected Ubar = 0.99073, pressure gradient = 5.06439
smoothSolver:  Solving for omega, Initial residual = 0.123101, Final residual = 0.00484053, No Iterations 2
smoothSolver:  Solving for k, Initial residual = 0.120345, Final residual = 0.00817172, No Iterations 3
ExecutionTime = 0.045222 s  ClockTime = 0 s

Time = 13s

smoothSolver:  Solving for Ux, Initial residual = 0.0283076, Final residual = 0.00192944, No Iterations 4
smoothSolver:  Solving for Uy, Initial residual = 0.412674, Final residual = 0.0197057, No Iterations 3
Pressure gradient source: uncorrected Ubar = 0.936547, pressure gradient = 10.3236
GAMG:  Solving for p, Initial residual = 0.192258, Final residual = 0.0117255, No Iterations 8
time step continuity errors : sum local = 0.128773, global = -1.78893e-17, cumulative = -1.06605e-16
Pressure gradient source: uncorrected Ubar = 0.994078, pressure gradient = 5.55523
smoothSolver:  Solving for omega, Initial residual = 0.115278, Final residual = 0.00535543, No Iterations 2
smoothSolver:  Solving for k, Initial residual = 0.0892367, Final residual = 0.00628946, No Iterations 3
ExecutionTime = 0.047874 s  ClockTime = 0 s

Time = 14s

smoothSolver:  Solving for Ux, Initial residual = 0.023746, Final residual = 0.00163425, No Iterations 4
smoothSolver:  Solving for Uy, Initial residual = 0.352122, Final residual = 0.0175131, No Iterations 3
Pressure gradient source: uncorrected Ubar = 0.884344, pressure gradient = 16.4003
GAMG:  Solving for p, Initial residual = 0.441029, Final residual = 0.0393973, No Iterations 10
time step continuity errors : sum local = 0.154654, global = 3.04644e-17, cumulative = -7.61409e-17
Pressure gradient source: uncorrected Ubar = 0.988622, pressure gradient = 6.62216
smoothSolver:  Solving for omega, Initial residual = 0.10796, Final residual = 0.00598774, No Iterations 2
smoothSolver:  Solving for k, Initial residual = 0.0806756, Final residual = 0.00650402, No Iterations 3
ExecutionTime = 0.050628 s  ClockTime = 0 s

Time = 15s

smoothSolver:  Solving for Ux, Initial residual = 0.0215641, Final residual = 0.00156883, No Iterations 4
smoothSolver:  Solving for Uy, Initial residual = 0.430672, Final residual = 0.0245209, No Iterations 3
Pressure gradient source: uncorrected Ubar = 0.967752, pressure gradient = 10.0013
GAMG:  Solving for p, Initial residual = 0.287553, Final residual = 0.026339, No Iterations 10
time step continuity errors : sum local = 0.147525, global = 2.94937e-17, cumulative = -4.66472e-17
Pressure gradient source: uncorrected Ubar = 1.00977, pressure gradient = 5.59873
smoothSolver:  Solving for omega, Initial residual = 0.0981822, Final residual = 0.00669999, No Iterations 2
smoothSolver:  Solving for k, Initial residual = 0.0728654, Final residual = 0.00638897, No Iterations 3
ExecutionTime = 0.053378 s  ClockTime = 0 s

Time = 16s

smoothSolver:  Solving for Ux, Initial residual = 0.0185471, Final residual = 0.00141129, No Iterations 4
smoothSolver:  Solving for Uy, Initial residual = 0.482484, Final residual = 0.0285337, No Iterations 3
Pressure gradient source: uncorrected Ubar = 0.892161, pressure gradient = 18.941
GAMG:  Solving for p, Initial residual = 0.324773, Final residual = 0.0272622, No Iterations 8
time step continuity errors : sum local = 0.150388, global = 6.28837e-17, cumulative = 1.62365e-17
Pressure gradient source: uncorrected Ubar = 0.997974, pressure gradient = 5.8494
smoothSolver:  Solving for omega, Initial residual = 0.0780058, Final residual = 0.00643928, No Iterations 2
smoothSolver:  Solving for k, Initial residual = 0.0641801, Final residual = 0.00600756, No Iterations 3
ExecutionTime = 0.056033 s  ClockTime = 0 s

Time = 17s

smoothSolver:  Solving for Ux, Initial residual = 0.0169331, Final residual = 0.0013435, No Iterations 4
smoothSolver:  Solving for Uy, Initial residual = 0.404072, Final residual = 0.0199704, No Iterations 3
Pressure gradient source: uncorrected Ubar = 0.919144, pressure gradient = 16.7803
GAMG:  Solving for p, Initial residual = 0.228883, Final residual = 0.02273, No Iterations 10
time step continuity errors : sum local = 0.140084, global = -2.23888e-17, cumulative = -6.15229e-18
Pressure gradient source: uncorrected Ubar = 0.991135, pressure gradient = 7.04789
smoothSolver:  Solving for omega, Initial residual = 0.073468, Final residual = 0.00639238, No Iterations 2
smoothSolver:  Solving for k, Initial residual = 0.0602266, Final residual = 0.00379075, No Iterations 4
ExecutionTime = 0.058799 s  ClockTime = 0 s

Time = 18s

smoothSolver:  Solving for Ux, Initial residual = 0.0151009, Final residual = 0.00139117, No Iterations 4
smoothSolver:  Solving for Uy, Initial residual = 0.33615, Final residual = 0.0252105, No Iterations 3
Pressure gradient source: uncorrected Ubar = 0.995387, pressure gradient = 7.72087
GAMG:  Solving for p, Initial residual = 0.112722, Final residual = 0.00984881, No Iterations 10
time step continuity errors : sum local = 0.13784, global = -4.18773e-17, cumulative = -4.80296e-17
Pressure gradient source: uncorrected Ubar = 0.998094, pressure gradient = 7.32595
smoothSolver:  Solving for omega, Initial residual = 0.0619962, Final residual = 0.00312541, No Iterations 3
smoothSolver:  Solving for k, Initial residual = 0.0567926, Final residual = 0.00395053, No Iterations 4
ExecutionTime = 0.061748 s  ClockTime = 0 s

Time = 19s

smoothSolver:  Solving for Ux, Initial residual = 0.0139538, Final residual = 0.000881057, No Iterations 5
smoothSolver:  Solving for Uy, Initial residual = 0.379604, Final residual = 0.0242304, No Iterations 3
Pressure gradient source: uncorrected Ubar = 1.00478, pressure gradient = 6.51663
GAMG:  Solving for p, Initial residual = 0.111987, Final residual = 0.00831985, No Iterations 9
time step continuity errors : sum local = 0.125923, global = -8.6228e-19, cumulative = -4.88919e-17
Pressure gradient source: uncorrected Ubar = 0.999546, pressure gradient = 7.40286
smoothSolver:  Solving for omega, Initial residual = 0.0513737, Final residual = 0.00335521, No Iterations 3
smoothSolver:  Solving for k, Initial residual = 0.0552119, Final residual = 0.00476728, No Iterations 4
ExecutionTime = 0.064502 s  ClockTime = 0 s

Time = 20s

smoothSolver:  Solving for Ux, Initial residual = 0.0126064, Final residual = 0.000861863, No Iterations 5
smoothSolver:  Solving for Uy, Initial residual = 0.262987, Final residual = 0.0200643, No Iterations 3
Pressure gradient source: uncorrected Ubar = 1.00137, pressure gradient = 7.14112
GAMG:  Solving for p, Initial residual = 0.124093, Final residual = 0.0101436, No Iterations 8
time step continuity errors : sum local = 0.124673, global = -9.54911e-17, cumulative = -1.44383e-16
Pressure gradient source: uncorrected Ubar = 0.995823, pressure gradient = 8.20029
smoothSolver:  Solving for omega, Initial residual = 0.0411969, Final residual = 0.00373776, No Iterations 3
smoothSolver:  Solving for k, Initial residual = 0.0527284, Final residual = 0.00317605, No Iterations 5
ExecutionTime = 0.067178 s  ClockTime = 0 s

Time = 21s

smoothSolver:  Solving for Ux, Initial residual = 0.0117357, Final residual = 0.000875818, No Iterations 5
smoothSolver:  Solving for Uy, Initial residual = 0.255608, Final residual = 0.0167517, No Iterations 3
Pressure gradient source: uncorrected Ubar = 1.02594, pressure gradient = 2.89616
GAMG:  Solving for p, Initial residual = 0.139241, Final residual = 0.0127561, No Iterations 9
time step continuity errors : sum local = 0.101338, global = 4.05898e-17, cumulative = -1.03793e-16
Pressure gradient source: uncorrected Ubar = 1.00316, pressure gradient = 7.55393
smoothSolver:  Solving for omega, Initial residual = 0.0365801, Final residual = 0.00228741, No Iterations 4
smoothSolver:  Solving for k, Initial residual = 0.0486923, Final residual = 0.00317819, No Iterations 5
ExecutionTime = 0.069976 s  ClockTime = 0 s

Time = 22s

smoothSolver:  Solving for Ux, Initial residual = 0.0108696, Final residual = 0.000852229, No Iterations 5
smoothSolver:  Solving for Uy, Initial residual = 0.260947, Final residual = 0.0189458, No Iterations 3
Pressure gradient source: uncorrected Ubar = 1.00955, pressure gradient = 5.46678
GAMG:  Solving for p, Initial residual = 0.175908, Final residual = 0.0164866, No Iterations 11
time step continuity errors : sum local = 0.0694449, global = 9.171e-17, cumulative = -1.20832e-17
Pressure gradient source: uncorrected Ubar = 1.00115, pressure gradient = 7.30229
smoothSolver:  Solving for omega, Initial residual = 0.0351147, Final residual = 0.0023981, No Iterations 4
smoothSolver:  Solving for k, Initial residual = 0.0466158, Final residual = 0.00344445, No Iterations 5
ExecutionTime = 0.072812 s  ClockTime = 0 s

Time = 23s

smoothSolver:  Solving for Ux, Initial residual = 0.010188, Final residual = 0.000833008, No Iterations 5
smoothSolver:  Solving for Uy, Initial residual = 0.216071, Final residual = 0.0197787, No Iterations 3
Pressure gradient source: uncorrected Ubar = 0.999168, pressure gradient = 7.4986
GAMG:  Solving for p, Initial residual = 0.0602699, Final residual = 0.00585475, No Iterations 10
time step continuity errors : sum local = 0.0769169, global = -1.19262e-17, cumulative = -2.40094e-17
Pressure gradient source: uncorrected Ubar = 0.999471, pressure gradient = 7.42718
smoothSolver:  Solving for omega, Initial residual = 0.0347538, Final residual = 0.00257371, No Iterations 4
smoothSolver:  Solving for k, Initial residual = 0.044106, Final residual = 0.00357488, No Iterations 5
ExecutionTime = 0.075599 s  ClockTime = 1 s

Time = 24s

smoothSolver:  Solving for Ux, Initial residual = 0.00977518, Final residual = 0.000820078, No Iterations 5
smoothSolver:  Solving for Uy, Initial residual = 0.196633, Final residual = 0.0195866, No Iterations 3
Pressure gradient source: uncorrected Ubar = 0.998555, pressure gradient = 7.79635
GAMG:  Solving for p, Initial residual = 0.0360418, Final residual = 0.00277633, No Iterations 9
time step continuity errors : sum local = 0.0622174, global = -9.09849e-17, cumulative = -1.14994e-16
Pressure gradient source: uncorrected Ubar = 1.00045, pressure gradient = 7.31167
smoothSolver:  Solving for omega, Initial residual = 0.0328322, Final residual = 0.00262105, No Iterations 4
smoothSolver:  Solving for k, Initial residual = 0.0406611, Final residual = 0.00344994, No Iterations 5
ExecutionTime = 0.078363 s  ClockTime = 1 s

Time = 25s

smoothSolver:  Solving for Ux, Initial residual = 0.00944425, Final residual = 0.000802517, No Iterations 5
smoothSolver:  Solving for Uy, Initial residual = 0.192922, Final residual = 0.00932312, No Iterations 4
Pressure gradient source: uncorrected Ubar = 0.996817, pressure gradient = 8.17779
GAMG:  Solving for p, Initial residual = 0.0238313, Final residual = 0.00206016, No Iterations 9
time step continuity errors : sum local = 0.0614703, global = -5.97429e-17, cumulative = -1.74737e-16
Pressure gradient source: uncorrected Ubar = 0.999777, pressure gradient = 7.37229
smoothSolver:  Solving for omega, Initial residual = 0.0314055, Final residual = 0.00276503, No Iterations 4
smoothSolver:  Solving for k, Initial residual = 0.0378185, Final residual = 0.00340002, No Iterations 5
ExecutionTime = 0.081113 s  ClockTime = 1 s

Time = 26s

smoothSolver:  Solving for Ux, Initial residual = 0.00917051, Final residual = 0.000787012, No Iterations 5
smoothSolver:  Solving for Uy, Initial residual = 0.171878, Final residual = 0.00925149, No Iterations 4
Pressure gradient source: uncorrected Ubar = 1.00326, pressure gradient = 6.42845
GAMG:  Solving for p, Initial residual = 0.0177489, Final residual = 0.00149481, No Iterations 9
time step continuity errors : sum local = 0.0534019, global = 6.03833e-17, cumulative = -1.14354e-16
Pressure gradient source: uncorrected Ubar = 1.00084, pressure gradient = 7.12881
smoothSolver:  Solving for omega, Initial residual = 0.030901, Final residual = 0.00281239, No Iterations 4
smoothSolver:  Solving for k, Initial residual = 0.0352003, Final residual = 0.00332013, No Iterations 5
ExecutionTime = 0.083858 s  ClockTime = 1 s

Time = 27s

smoothSolver:  Solving for Ux, Initial residual = 0.00888604, Final residual = 0.000766813, No Iterations 5
smoothSolver:  Solving for Uy, Initial residual = 0.143002, Final residual = 0.00931085, No Iterations 4
Pressure gradient source: uncorrected Ubar = 1.00326, pressure gradient = 6.12157
GAMG:  Solving for p, Initial residual = 0.0131522, Final residual = 0.0010461, No Iterations 9
time step continuity errors : sum local = 0.043183, global = -7.79541e-17, cumulative = -1.92308e-16
Pressure gradient source: uncorrected Ubar = 1.00078, pressure gradient = 6.88653
smoothSolver:  Solving for omega, Initial residual = 0.0291874, Final residual = 0.00288379, No Iterations 4
smoothSolver:  Solving for k, Initial residual = 0.0326785, Final residual = 0.00319696, No Iterations 5
ExecutionTime = 0.086616 s  ClockTime = 1 s

Time = 28s

smoothSolver:  Solving for Ux, Initial residual = 0.00862771, Final residual = 0.000747182, No Iterations 5
smoothSolver:  Solving for Uy, Initial residual = 0.125932, Final residual = 0.00903466, No Iterations 4
Pressure gradient source: uncorrected Ubar = 1.00464, pressure gradient = 5.35478
GAMG:  Solving for p, Initial residual = 0.00906412, Final residual = 0.000738913, No Iterations 9
time step continuity errors : sum local = 0.033423, global = 1.13841e-17, cumulative = -1.80924e-16
Pressure gradient source: uncorrected Ubar = 1.00072, pressure gradient = 6.64992
smoothSolver:  Solving for omega, Initial residual = 0.0288117, Final residual = 0.00180977, No Iterations 5
smoothSolver:  Solving for k, Initial residual = 0.0305711, Final residual = 0.0019746, No Iterations 6
ExecutionTime = 0.089482 s  ClockTime = 1 s

Time = 29s

smoothSolver:  Solving for Ux, Initial residual = 0.00838472, Final residual = 0.000728753, No Iterations 5
smoothSolver:  Solving for Uy, Initial residual = 0.114275, Final residual = 0.00873841, No Iterations 4
Pressure gradient source: uncorrected Ubar = 1.0053, pressure gradient = 4.78032
GAMG:  Solving for p, Initial residual = 0.0065606, Final residual = 0.000562459, No Iterations 9
time step continuity errors : sum local = 0.0262514, global = -1.19432e-18, cumulative = -1.82118e-16
Pressure gradient source: uncorrected Ubar = 1.00077, pressure gradient = 6.38004
smoothSolver:  Solving for omega, Initial residual = 0.0281989, Final residual = 0.00196881, No Iterations 5
smoothSolver:  Solving for k, Initial residual = 0.0286398, Final residual = 0.00189619, No Iterations 6
ExecutionTime = 0.092284 s  ClockTime = 1 s

Time = 30s

smoothSolver:  Solving for Ux, Initial residual = 0.00815678, Final residual = 0.000710938, No Iterations 5
smoothSolver:  Solving for Uy, Initial residual = 0.100363, Final residual = 0.00857606, No Iterations 4
Pressure gradient source: uncorrected Ubar = 1.00452, pressure gradient = 4.69135
GAMG:  Solving for p, Initial residual = 0.0053407, Final residual = 0.000464446, No Iterations 8
time step continuity errors : sum local = 0.0215089, global = -5.10659e-17, cumulative = -2.33184e-16
Pressure gradient source: uncorrected Ubar = 1.00056, pressure gradient = 6.17218
smoothSolver:  Solving for omega, Initial residual = 0.0260717, Final residual = 0.00186715, No Iterations 5
smoothSolver:  Solving for k, Initial residual = 0.0269227, Final residual = 0.00184063, No Iterations 6
ExecutionTime = 0.095118 s  ClockTime = 1 s

Time = 31s

smoothSolver:  Solving for Ux, Initial residual = 0.00793059, Final residual = 0.000693288, No Iterations 5
smoothSolver:  Solving for Uy, Initial residual = 0.0852693, Final residual = 0.00836066, No Iterations 4
Pressure gradient source: uncorrected Ubar = 1.00353, pressure gradient = 4.75899
GAMG:  Solving for p, Initial residual = 0.00460754, Final residual = 0.000342537, No Iterations 8
time step continuity errors : sum local = 0.0148496, global = -7.42695e-17, cumulative = -3.07454e-16
Pressure gradient source: uncorrected Ubar = 1.00037, pressure gradient = 6.02318
smoothSolver:  Solving for omega, Initial residual = 0.0245204, Final residual = 0.00191301, No Iterations 5
smoothSolver:  Solving for k, Initial residual = 0.0254094, Final residual = 0.00180081, No Iterations 6
ExecutionTime = 0.097929 s  ClockTime = 1 s

Time = 32s

smoothSolver:  Solving for Ux, Initial residual = 0.00772202, Final residual = 0.000676731, No Iterations 5
smoothSolver:  Solving for Uy, Initial residual = 0.0738824, Final residual = 0.00464013, No Iterations 5
Pressure gradient source: uncorrected Ubar = 1.00355, pressure gradient = 4.51887
GAMG:  Solving for p, Initial residual = 0.00407427, Final residual = 0.000336783, No Iterations 6
time step continuity errors : sum local = 0.0125006, global = 9.73639e-17, cumulative = -2.1009e-16
Pressure gradient source: uncorrected Ubar = 1.00034, pressure gradient = 5.88012
smoothSolver:  Solving for omega, Initial residual = 0.022895, Final residual = 0.00182014, No Iterations 5
smoothSolver:  Solving for k, Initial residual = 0.0237778, Final residual = 0.00171127, No Iterations 6
ExecutionTime = 0.100633 s  ClockTime = 1 s

Time = 33s

smoothSolver:  Solving for Ux, Initial residual = 0.00752373, Final residual = 0.000660051, No Iterations 5
smoothSolver:  Solving for Uy, Initial residual = 0.0668171, Final residual = 0.00417193, No Iterations 5
Pressure gradient source: uncorrected Ubar = 1.00206, pressure gradient = 4.95601
GAMG:  Solving for p, Initial residual = 0.00367565, Final residual = 0.000193276, No Iterations 5
time step continuity errors : sum local = 0.00630872, global = 1.87567e-16, cumulative = -2.25229e-17
Pressure gradient source: uncorrected Ubar = 1.0001, pressure gradient = 5.83302
smoothSolver:  Solving for omega, Initial residual = 0.0206316, Final residual = 0.00177066, No Iterations 5
smoothSolver:  Solving for k, Initial residual = 0.022345, Final residual = 0.00164236, No Iterations 6
ExecutionTime = 0.103226 s  ClockTime = 1 s

Time = 34s

smoothSolver:  Solving for Ux, Initial residual = 0.0072949, Final residual = 0.000635245, No Iterations 5
smoothSolver:  Solving for Uy, Initial residual = 0.0609081, Final residual = 0.00377009, No Iterations 5
Pressure gradient source: uncorrected Ubar = 1.00133, pressure gradient = 5.19145
GAMG:  Solving for p, Initial residual = 0.00336206, Final residual = 0.000104194, No Iterations 5
time step continuity errors : sum local = 0.002485, global = 1.18665e-16, cumulative = 9.61418e-17
Pressure gradient source: uncorrected Ubar = 0.999999, pressure gradient = 5.83348
smoothSolver:  Solving for omega, Initial residual = 0.0191327, Final residual = 0.00167102, No Iterations 5
smoothSolver:  Solving for k, Initial residual = 0.0205243, Final residual = 0.00152079, No Iterations 6
ExecutionTime = 0.105854 s  ClockTime = 1 s

Time = 35s

smoothSolver:  Solving for Ux, Initial residual = 0.00700043, Final residual = 0.000608506, No Iterations 5
smoothSolver:  Solving for Uy, Initial residual = 0.0554374, Final residual = 0.00365706, No Iterations 5
Pressure gradient source: uncorrected Ubar = 1.00094, pressure gradient = 5.35049
GAMG:  Solving for p, Initial residual = 0.00306514, Final residual = 0.000178777, No Iterations 4
time step continuity errors : sum local = 0.00462591, global = -1.27936e-17, cumulative = 8.33482e-17
Pressure gradient source: uncorrected Ubar = 0.999946, pressure gradient = 5.86095
smoothSolver:  Solving for omega, Initial residual = 0.0177105, Final residual = 0.00159031, No Iterations 5
smoothSolver:  Solving for k, Initial residual = 0.0186608, Final residual = 0.00140521, No Iterations 6
ExecutionTime = 0.108438 s  ClockTime = 1 s

Time = 36s

smoothSolver:  Solving for Ux, Initial residual = 0.00672934, Final residual = 0.000582541, No Iterations 5
smoothSolver:  Solving for Uy, Initial residual = 0.0469547, Final residual = 0.00335542, No Iterations 5
Pressure gradient source: uncorrected Ubar = 1.00036, pressure gradient = 5.66312
GAMG:  Solving for p, Initial residual = 0.00280008, Final residual = 0.000268557, No Iterations 4
time step continuity errors : sum local = 0.00613397, global = 8.0285e-17, cumulative = 1.63633e-16
Pressure gradient source: uncorrected Ubar = 0.999871, pressure gradient = 5.93173
smoothSolver:  Solving for omega, Initial residual = 0.0162585, Final residual = 0.0015063, No Iterations 5
smoothSolver:  Solving for k, Initial residual = 0.0169763, Final residual = 0.001284, No Iterations 6
ExecutionTime = 0.110987 s  ClockTime = 1 s

Time = 37s

smoothSolver:  Solving for Ux, Initial residual = 0.00649088, Final residual = 0.000559549, No Iterations 5
smoothSolver:  Solving for Uy, Initial residual = 0.039375, Final residual = 0.0030344, No Iterations 5
Pressure gradient source: uncorrected Ubar = 0.999901, pressure gradient = 5.98975
GAMG:  Solving for p, Initial residual = 0.00257148, Final residual = 0.000224419, No Iterations 6
time step continuity errors : sum local = 0.00479713, global = -2.74303e-17, cumulative = 1.36203e-16
Pressure gradient source: uncorrected Ubar = 0.999827, pressure gradient = 6.03247
smoothSolver:  Solving for omega, Initial residual = 0.0148221, Final residual = 0.00147027, No Iterations 5
smoothSolver:  Solving for k, Initial residual = 0.015374, Final residual = 0.00116466, No Iterations 6
ExecutionTime = 0.113625 s  ClockTime = 1 s

Time = 38s

smoothSolver:  Solving for Ux, Initial residual = 0.00627908, Final residual = 0.000539217, No Iterations 5
smoothSolver:  Solving for Uy, Initial residual = 0.0334201, Final residual = 0.00269998, No Iterations 5
Pressure gradient source: uncorrected Ubar = 0.999863, pressure gradient = 6.11716
GAMG:  Solving for p, Initial residual = 0.00240612, Final residual = 0.000225044, No Iterations 12
time step continuity errors : sum local = 0.00422039, global = 1.07987e-16, cumulative = 2.44189e-16
Pressure gradient source: uncorrected Ubar = 0.999834, pressure gradient = 6.13552
smoothSolver:  Solving for omega, Initial residual = 0.0133014, Final residual = 0.000868831, No Iterations 6
smoothSolver:  Solving for k, Initial residual = 0.0139955, Final residual = 0.00105711, No Iterations 6
ExecutionTime = 0.116576 s  ClockTime = 1 s

Time = 39s

smoothSolver:  Solving for Ux, Initial residual = 0.00608742, Final residual = 0.000520727, No Iterations 5
smoothSolver:  Solving for Uy, Initial residual = 0.0284375, Final residual = 0.00242931, No Iterations 5
Pressure gradient source: uncorrected Ubar = 1.00008, pressure gradient = 6.08395
GAMG:  Solving for p, Initial residual = 0.00204113, Final residual = 0.000191978, No Iterations 16
time step continuity errors : sum local = 0.00311769, global = -2.42319e-17, cumulative = 2.19957e-16
Pressure gradient source: uncorrected Ubar = 0.999874, pressure gradient = 6.21801
smoothSolver:  Solving for omega, Initial residual = 0.0122579, Final residual = 0.000840437, No Iterations 6
smoothSolver:  Solving for k, Initial residual = 0.0129186, Final residual = 0.000988219, No Iterations 6
ExecutionTime = 0.119716 s  ClockTime = 1 s

Time = 40s

smoothSolver:  Solving for Ux, Initial residual = 0.00590968, Final residual = 0.000504046, No Iterations 5
smoothSolver:  Solving for Uy, Initial residual = 0.024597, Final residual = 0.00220159, No Iterations 5
Pressure gradient source: uncorrected Ubar = 1.00013, pressure gradient = 6.12486
GAMG:  Solving for p, Initial residual = 0.00181546, Final residual = 0.000169503, No Iterations 18
time step continuity errors : sum local = 0.00233194, global = 9.77952e-17, cumulative = 3.17753e-16
Pressure gradient source: uncorrected Ubar = 0.99989, pressure gradient = 6.29461
smoothSolver:  Solving for omega, Initial residual = 0.0112574, Final residual = 0.000774908, No Iterations 6
smoothSolver:  Solving for k, Initial residual = 0.0118573, Final residual = 0.000907434, No Iterations 6
ExecutionTime = 0.122909 s  ClockTime = 1 s

Time = 41s

smoothSolver:  Solving for Ux, Initial residual = 0.00575079, Final residual = 0.00048979, No Iterations 5
smoothSolver:  Solving for Uy, Initial residual = 0.0223621, Final residual = 0.00208951, No Iterations 5
Pressure gradient source: uncorrected Ubar = 1.00032, pressure gradient = 6.06247
GAMG:  Solving for p, Initial residual = 0.00166379, Final residual = 0.000141783, No Iterations 12
time step continuity errors : sum local = 0.00163081, global = -4.12539e-17, cumulative = 2.76499e-16
Pressure gradient source: uncorrected Ubar = 0.999915, pressure gradient = 6.35661
smoothSolver:  Solving for omega, Initial residual = 0.0104831, Final residual = 0.000731321, No Iterations 6
smoothSolver:  Solving for k, Initial residual = 0.0109884, Final residual = 0.000850017, No Iterations 6
ExecutionTime = 0.125837 s  ClockTime = 1 s

Time = 42s

smoothSolver:  Solving for Ux, Initial residual = 0.00560513, Final residual = 0.000477197, No Iterations 5
smoothSolver:  Solving for Uy, Initial residual = 0.0214758, Final residual = 0.00207569, No Iterations 5
Pressure gradient source: uncorrected Ubar = 1.00052, pressure gradient = 5.95621
GAMG:  Solving for p, Initial residual = 0.00149098, Final residual = 0.000128653, No Iterations 19
time step continuity errors : sum local = 0.00132311, global = -7.6111e-17, cumulative = 2.00388e-16
Pressure gradient source: uncorrected Ubar = 0.99995, pressure gradient = 6.39548
smoothSolver:  Solving for omega, Initial residual = 0.00976124, Final residual = 0.000695847, No Iterations 6
smoothSolver:  Solving for k, Initial residual = 0.010197, Final residual = 0.000790134, No Iterations 6
ExecutionTime = 0.129106 s  ClockTime = 1 s

Time = 43s

smoothSolver:  Solving for Ux, Initial residual = 0.00547375, Final residual = 0.000466367, No Iterations 5
smoothSolver:  Solving for Uy, Initial residual = 0.0217451, Final residual = 0.0021483, No Iterations 5
Pressure gradient source: uncorrected Ubar = 1.0006, pressure gradient = 5.91559
GAMG:  Solving for p, Initial residual = 0.00126317, Final residual = 0.000124896, No Iterations 17
time step continuity errors : sum local = 0.0011539, global = 1.20997e-16, cumulative = 3.21385e-16
Pressure gradient source: uncorrected Ubar = 0.999962, pressure gradient = 6.42598
smoothSolver:  Solving for omega, Initial residual = 0.00905241, Final residual = 0.00065482, No Iterations 6
smoothSolver:  Solving for k, Initial residual = 0.00951514, Final residual = 0.000744065, No Iterations 6
ExecutionTime = 0.132257 s  ClockTime = 1 s

Time = 44s

smoothSolver:  Solving for Ux, Initial residual = 0.00535303, Final residual = 0.000456695, No Iterations 5
smoothSolver:  Solving for Uy, Initial residual = 0.0225209, Final residual = 0.00146838, No Iterations 6
Pressure gradient source: uncorrected Ubar = 1.00068, pressure gradient = 5.85696
GAMG:  Solving for p, Initial residual = 0.0011865, Final residual = 0.000114774, No Iterations 15
time step continuity errors : sum local = 0.000972868, global = -1.45825e-17, cumulative = 3.06802e-16
Pressure gradient source: uncorrected Ubar = 0.999977, pressure gradient = 6.4455
smoothSolver:  Solving for omega, Initial residual = 0.00849599, Final residual = 0.000627221, No Iterations 6
smoothSolver:  Solving for k, Initial residual = 0.00887789, Final residual = 0.000694389, No Iterations 6
ExecutionTime = 0.135324 s  ClockTime = 1 s

Time = 45s

smoothSolver:  Solving for Ux, Initial residual = 0.00524227, Final residual = 0.000448173, No Iterations 5
smoothSolver:  Solving for Uy, Initial residual = 0.0229318, Final residual = 0.00153667, No Iterations 6
Pressure gradient source: uncorrected Ubar = 1.00068, pressure gradient = 5.8518
GAMG:  Solving for p, Initial residual = 0.00104337, Final residual = 9.81537e-05, No Iterations 13
time step continuity errors : sum local = 0.000779252, global = -3.65918e-17, cumulative = 2.7021e-16
Pressure gradient source: uncorrected Ubar = 0.99998, pressure gradient = 6.46342
smoothSolver:  Solving for omega, Initial residual = 0.00796009, Final residual = 0.000589183, No Iterations 6
smoothSolver:  Solving for k, Initial residual = 0.00834356, Final residual = 0.00065733, No Iterations 6
ExecutionTime = 0.138329 s  ClockTime = 1 s

Time = 46s

smoothSolver:  Solving for Ux, Initial residual = 0.005139, Final residual = 0.000440551, No Iterations 5
smoothSolver:  Solving for Uy, Initial residual = 0.0234815, Final residual = 0.00160723, No Iterations 6
Pressure gradient source: uncorrected Ubar = 1.00071, pressure gradient = 5.81002
GAMG:  Solving for p, Initial residual = 0.000963788, Final residual = 9.27758e-05, No Iterations 10
time step continuity errors : sum local = 0.00067499, global = -5.81402e-17, cumulative = 2.1207e-16
Pressure gradient source: uncorrected Ubar = 0.999989, pressure gradient = 6.47342
smoothSolver:  Solving for omega, Initial residual = 0.00756477, Final residual = 0.000566727, No Iterations 6
smoothSolver:  Solving for k, Initial residual = 0.007814, Final residual = 0.000613353, No Iterations 6
ExecutionTime = 0.141172 s  ClockTime = 1 s

Time = 47s

smoothSolver:  Solving for Ux, Initial residual = 0.00504424, Final residual = 0.00043385, No Iterations 5
smoothSolver:  Solving for Uy, Initial residual = 0.0241201, Final residual = 0.00167076, No Iterations 6
Pressure gradient source: uncorrected Ubar = 1.00071, pressure gradient = 5.79905
GAMG:  Solving for p, Initial residual = 0.000844844, Final residual = 7.74328e-05, No Iterations 14
time step continuity errors : sum local = 0.000546968, global = -8.15321e-17, cumulative = 1.30538e-16
Pressure gradient source: uncorrected Ubar = 0.999991, pressure gradient = 6.48182
smoothSolver:  Solving for omega, Initial residual = 0.00718876, Final residual = 0.000537657, No Iterations 6
smoothSolver:  Solving for k, Initial residual = 0.00739101, Final residual = 0.000582018, No Iterations 6
ExecutionTime = 0.144216 s  ClockTime = 1 s

Time = 48s

smoothSolver:  Solving for Ux, Initial residual = 0.00495616, Final residual = 0.000427667, No Iterations 5
smoothSolver:  Solving for Uy, Initial residual = 0.0246892, Final residual = 0.00172643, No Iterations 6
Pressure gradient source: uncorrected Ubar = 1.00075, pressure gradient = 5.74362
GAMG:  Solving for p, Initial residual = 0.00079534, Final residual = 7.8677e-05, No Iterations 14
time step continuity errors : sum local = 0.000528734, global = -5.42106e-18, cumulative = 1.25117e-16
Pressure gradient source: uncorrected Ubar = 1, pressure gradient = 6.48131
smoothSolver:  Solving for omega, Initial residual = 0.00683963, Final residual = 0.000516614, No Iterations 6
smoothSolver:  Solving for k, Initial residual = 0.00701763, Final residual = 0.000551108, No Iterations 6
ExecutionTime = 0.147258 s  ClockTime = 1 s

Time = 49s

smoothSolver:  Solving for Ux, Initial residual = 0.00487281, Final residual = 0.000421862, No Iterations 5
smoothSolver:  Solving for Uy, Initial residual = 0.0249358, Final residual = 0.00176386, No Iterations 6
Pressure gradient source: uncorrected Ubar = 1.00072, pressure gradient = 5.74929
GAMG:  Solving for p, Initial residual = 0.000720627, Final residual = 6.99857e-05, No Iterations 16
time step continuity errors : sum local = 0.000461181, global = -4.49944e-17, cumulative = 8.01227e-17
Pressure gradient source: uncorrected Ubar = 0.999998, pressure gradient = 6.48337
smoothSolver:  Solving for omega, Initial residual = 0.00650425, Final residual = 0.000488534, No Iterations 6
smoothSolver:  Solving for k, Initial residual = 0.00670022, Final residual = 0.000522369, No Iterations 6
ExecutionTime = 0.150382 s  ClockTime = 1 s

Time = 50s

smoothSolver:  Solving for Ux, Initial residual = 0.00479402, Final residual = 0.000416537, No Iterations 5
smoothSolver:  Solving for Uy, Initial residual = 0.0250785, Final residual = 0.00179282, No Iterations 6
Pressure gradient source: uncorrected Ubar = 1.00074, pressure gradient = 5.70073
GAMG:  Solving for p, Initial residual = 0.000700563, Final residual = 6.4459e-05, No Iterations 18
time step continuity errors : sum local = 0.000405863, global = 4.01968e-17, cumulative = 1.2032e-16
Pressure gradient source: uncorrected Ubar = 1, pressure gradient = 6.47903
smoothSolver:  Solving for omega, Initial residual = 0.00622733, Final residual = 0.000472926, No Iterations 6
smoothSolver:  Solving for k, Initial residual = 0.00643157, Final residual = 0.00049691, No Iterations 6
ExecutionTime = 0.153578 s  ClockTime = 1 s

Time = 51s

smoothSolver:  Solving for Ux, Initial residual = 0.00471954, Final residual = 0.000411669, No Iterations 5
smoothSolver:  Solving for Uy, Initial residual = 0.0251225, Final residual = 0.00181062, No Iterations 6
Pressure gradient source: uncorrected Ubar = 1.00071, pressure gradient = 5.71007
GAMG:  Solving for p, Initial residual = 0.000701122, Final residual = 6.94558e-05, No Iterations 18
time step continuity errors : sum local = 0.000405358, global = -3.32308e-17, cumulative = 8.70887e-17
Pressure gradient source: uncorrected Ubar = 1, pressure gradient = 6.47827
smoothSolver:  Solving for omega, Initial residual = 0.00594082, Final residual = 0.000450849, No Iterations 6
smoothSolver:  Solving for k, Initial residual = 0.00620401, Final residual = 0.000474655, No Iterations 6
ExecutionTime = 0.156817 s  ClockTime = 1 s

Time = 52s

smoothSolver:  Solving for Ux, Initial residual = 0.00464924, Final residual = 0.000407072, No Iterations 5
smoothSolver:  Solving for Uy, Initial residual = 0.0251779, Final residual = 0.00182483, No Iterations 6
Pressure gradient source: uncorrected Ubar = 1.00072, pressure gradient = 5.66806
GAMG:  Solving for p, Initial residual = 0.000714361, Final residual = 6.56691e-05, No Iterations 20
time step continuity errors : sum local = 0.000358156, global = -3.96276e-17, cumulative = 4.74611e-17
Pressure gradient source: uncorrected Ubar = 1.00001, pressure gradient = 6.47206
smoothSolver:  Solving for omega, Initial residual = 0.00567084, Final residual = 0.000430112, No Iterations 6
smoothSolver:  Solving for k, Initial residual = 0.0060723, Final residual = 0.000462686, No Iterations 6
ExecutionTime = 0.160104 s  ClockTime = 1 s

Time = 53s

smoothSolver:  Solving for Ux, Initial residual = 0.00458346, Final residual = 0.000402773, No Iterations 5
smoothSolver:  Solving for Uy, Initial residual = 0.0253421, Final residual = 0.0018451, No Iterations 6
Pressure gradient source: uncorrected Ubar = 1.00067, pressure gradient = 5.69574
GAMG:  Solving for p, Initial residual = 0.000708363, Final residual = 6.97281e-05, No Iterations 20
time step continuity errors : sum local = 0.000347527, global = -6.15556e-17, cumulative = -1.40944e-17
Pressure gradient source: uncorrected Ubar = 0.999999, pressure gradient = 6.47301
smoothSolver:  Solving for omega, Initial residual = 0.00545294, Final residual = 0.00041575, No Iterations 6
smoothSolver:  Solving for k, Initial residual = 0.00595073, Final residual = 0.000455508, No Iterations 6
ExecutionTime = 0.163411 s  ClockTime = 1 s

Time = 54s

smoothSolver:  Solving for Ux, Initial residual = 0.00451994, Final residual = 0.000398497, No Iterations 5
smoothSolver:  Solving for Uy, Initial residual = 0.0252601, Final residual = 0.00184862, No Iterations 6
Pressure gradient source: uncorrected Ubar = 1.00068, pressure gradient = 5.65748
GAMG:  Solving for p, Initial residual = 0.000733574, Final residual = 7.31284e-05, No Iterations 20
time step continuity errors : sum local = 0.000333085, global = -5.55924e-17, cumulative = -6.96868e-17
Pressure gradient source: uncorrected Ubar = 1, pressure gradient = 6.46897
smoothSolver:  Solving for omega, Initial residual = 0.005231, Final residual = 0.000395361, No Iterations 6
smoothSolver:  Solving for k, Initial residual = 0.00584012, Final residual = 0.00044623, No Iterations 6
ExecutionTime = 0.166717 s  ClockTime = 1 s

Time = 55s

smoothSolver:  Solving for Ux, Initial residual = 0.0044591, Final residual = 0.000394535, No Iterations 5
smoothSolver:  Solving for Uy, Initial residual = 0.0251278, Final residual = 0.00184528, No Iterations 6
Pressure gradient source: uncorrected Ubar = 1.00067, pressure gradient = 5.64721
GAMG:  Solving for p, Initial residual = 0.000760823, Final residual = 7.48955e-05, No Iterations 20
time step continuity errors : sum local = 0.000311511, global = 7.61923e-17, cumulative = 6.50548e-18
Pressure gradient source: uncorrected Ubar = 1, pressure gradient = 6.46524
smoothSolver:  Solving for omega, Initial residual = 0.00503553, Final residual = 0.000387279, No Iterations 6
smoothSolver:  Solving for k, Initial residual = 0.00578671, Final residual = 0.00044765, No Iterations 6
ExecutionTime = 0.17001 s  ClockTime = 1 s

Time = 56s

smoothSolver:  Solving for Ux, Initial residual = 0.00440084, Final residual = 0.000390751, No Iterations 5
smoothSolver:  Solving for Uy, Initial residual = 0.0251463, Final residual = 0.00185433, No Iterations 6
Pressure gradient source: uncorrected Ubar = 1.00067, pressure gradient = 5.61923
GAMG:  Solving for p, Initial residual = 0.000764787, Final residual = 7.50492e-05, No Iterations 20
time step continuity errors : sum local = 0.000285257, global = -8.37546e-18, cumulative = -1.86998e-18
Pressure gradient source: uncorrected Ubar = 1.00001, pressure gradient = 6.45887
smoothSolver:  Solving for omega, Initial residual = 0.00483028, Final residual = 0.000369972, No Iterations 6
smoothSolver:  Solving for k, Initial residual = 0.00570866, Final residual = 0.000440079, No Iterations 6
ExecutionTime = 0.173369 s  ClockTime = 1 s

Time = 57s

smoothSolver:  Solving for Ux, Initial residual = 0.00434566, Final residual = 0.000387248, No Iterations 5
smoothSolver:  Solving for Uy, Initial residual = 0.0250359, Final residual = 0.00185502, No Iterations 6
Pressure gradient source: uncorrected Ubar = 1.00065, pressure gradient = 5.61578
GAMG:  Solving for p, Initial residual = 0.00076476, Final residual = 7.14653e-05, No Iterations 20
time step continuity errors : sum local = 0.000248621, global = 4.17419e-17, cumulative = 3.98719e-17
Pressure gradient source: uncorrected Ubar = 1, pressure gradient = 6.45416
smoothSolver:  Solving for omega, Initial residual = 0.00465576, Final residual = 0.000355702, No Iterations 6
smoothSolver:  Solving for k, Initial residual = 0.00564131, Final residual = 0.000438583, No Iterations 6
ExecutionTime = 0.176695 s  ClockTime = 1 s

Time = 58s

smoothSolver:  Solving for Ux, Initial residual = 0.00429322, Final residual = 0.000383746, No Iterations 5
smoothSolver:  Solving for Uy, Initial residual = 0.0249743, Final residual = 0.00185769, No Iterations 6
Pressure gradient source: uncorrected Ubar = 1.00066, pressure gradient = 5.57595
GAMG:  Solving for p, Initial residual = 0.000782898, Final residual = 6.95755e-05, No Iterations 20
time step continuity errors : sum local = 0.000220904, global = 4.37205e-17, cumulative = 8.35924e-17
Pressure gradient source: uncorrected Ubar = 1.00001, pressure gradient = 6.4446
smoothSolver:  Solving for omega, Initial residual = 0.00447638, Final residual = 0.000344683, No Iterations 6
smoothSolver:  Solving for k, Initial residual = 0.00558759, Final residual = 0.000433001, No Iterations 6
ExecutionTime = 0.180014 s  ClockTime = 1 s

Time = 59s

smoothSolver:  Solving for Ux, Initial residual = 0.00424252, Final residual = 0.000380432, No Iterations 5
smoothSolver:  Solving for Uy, Initial residual = 0.0250733, Final residual = 0.00187263, No Iterations 6
Pressure gradient source: uncorrected Ubar = 1.00064, pressure gradient = 5.56156
GAMG:  Solving for p, Initial residual = 0.000783507, Final residual = 7.25857e-05, No Iterations 18
time step continuity errors : sum local = 0.000208757, global = -5.6365e-17, cumulative = 2.72274e-17
Pressure gradient source: uncorrected Ubar = 1.00001, pressure gradient = 6.4353
smoothSolver:  Solving for omega, Initial residual = 0.00433351, Final residual = 0.000335764, No Iterations 6
smoothSolver:  Solving for k, Initial residual = 0.00555081, Final residual = 0.000434708, No Iterations 6
ExecutionTime = 0.183208 s  ClockTime = 1 s

Time = 60s

smoothSolver:  Solving for Ux, Initial residual = 0.00419319, Final residual = 0.000377116, No Iterations 5
smoothSolver:  Solving for Uy, Initial residual = 0.0250885, Final residual = 0.00188271, No Iterations 6
Pressure gradient source: uncorrected Ubar = 1.00066, pressure gradient = 5.50487
GAMG:  Solving for p, Initial residual = 0.000783665, Final residual = 7.38152e-05, No Iterations 16
time step continuity errors : sum local = 0.00019315, global = 2.32832e-17, cumulative = 5.05107e-17
Pressure gradient source: uncorrected Ubar = 1.00001, pressure gradient = 6.419
smoothSolver:  Solving for omega, Initial residual = 0.00417162, Final residual = 0.000320193, No Iterations 6
smoothSolver:  Solving for k, Initial residual = 0.00549093, Final residual = 0.000428223, No Iterations 6
ExecutionTime = 0.186338 s  ClockTime = 1 s

Time = 61s

smoothSolver:  Solving for Ux, Initial residual = 0.00414522, Final residual = 0.000374042, No Iterations 5
smoothSolver:  Solving for Uy, Initial residual = 0.0250252, Final residual = 0.00188696, No Iterations 6
Pressure gradient source: uncorrected Ubar = 1.00067, pressure gradient = 5.45718
GAMG:  Solving for p, Initial residual = 0.000797568, Final residual = 7.08427e-05, No Iterations 17
time step continuity errors : sum local = 0.000173708, global = -8.91756e-18, cumulative = 4.15931e-17
Pressure gradient source: uncorrected Ubar = 1.00001, pressure gradient = 6.39816
smoothSolver:  Solving for omega, Initial residual = 0.00404829, Final residual = 0.000318877, No Iterations 6
smoothSolver:  Solving for k, Initial residual = 0.00545524, Final residual = 0.000428835, No Iterations 6
ExecutionTime = 0.189493 s  ClockTime = 1 s

Time = 62s

smoothSolver:  Solving for Ux, Initial residual = 0.00409974, Final residual = 0.000371062, No Iterations 5
smoothSolver:  Solving for Uy, Initial residual = 0.0246299, Final residual = 0.00186801, No Iterations 6
Pressure gradient source: uncorrected Ubar = 1.00066, pressure gradient = 5.42176
GAMG:  Solving for p, Initial residual = 0.000858502, Final residual = 8.37145e-05, No Iterations 15
time step continuity errors : sum local = 0.000185823, global = 2.54652e-17, cumulative = 6.70583e-17
Pressure gradient source: uncorrected Ubar = 1.00002, pressure gradient = 6.37561
smoothSolver:  Solving for omega, Initial residual = 0.00390153, Final residual = 0.000305366, No Iterations 6
smoothSolver:  Solving for k, Initial residual = 0.00542126, Final residual = 0.000425048, No Iterations 6
ExecutionTime = 0.192587 s  ClockTime = 1 s

Time = 63s

smoothSolver:  Solving for Ux, Initial residual = 0.00405679, Final residual = 0.000368205, No Iterations 5
smoothSolver:  Solving for Uy, Initial residual = 0.0246582, Final residual = 0.001873, No Iterations 6
Pressure gradient source: uncorrected Ubar = 1.00065, pressure gradient = 5.39057
GAMG:  Solving for p, Initial residual = 0.000877308, Final residual = 7.56851e-05, No Iterations 17
time step continuity errors : sum local = 0.000155325, global = -3.33392e-18, cumulative = 6.37244e-17
Pressure gradient source: uncorrected Ubar = 1.00002, pressure gradient = 6.35233
smoothSolver:  Solving for omega, Initial residual = 0.00378203, Final residual = 0.000297188, No Iterations 6
smoothSolver:  Solving for k, Initial residual = 0.00540596, Final residual = 0.000428918, No Iterations 6
ExecutionTime = 0.195768 s  ClockTime = 1 s

Time = 64s

smoothSolver:  Solving for Ux, Initial residual = 0.00401447, Final residual = 0.000365304, No Iterations 5
smoothSolver:  Solving for Uy, Initial residual = 0.0244871, Final residual = 0.00186363, No Iterations 6
Pressure gradient source: uncorrected Ubar = 1.00064, pressure gradient = 5.36417
GAMG:  Solving for p, Initial residual = 0.000905363, Final residual = 8.99251e-05, No Iterations 15
time step continuity errors : sum local = 0.00016627, global = -5.04425e-17, cumulative = 1.32819e-17
Pressure gradient source: uncorrected Ubar = 1.00002, pressure gradient = 6.32914
smoothSolver:  Solving for omega, Initial residual = 0.0036592, Final residual = 0.00028697, No Iterations 6
smoothSolver:  Solving for k, Initial residual = 0.00535755, Final residual = 0.000423456, No Iterations 6
ExecutionTime = 0.198843 s  ClockTime = 1 s

Time = 65s

smoothSolver:  Solving for Ux, Initial residual = 0.0039737, Final residual = 0.000362548, No Iterations 5
smoothSolver:  Solving for Uy, Initial residual = 0.0243347, Final residual = 0.00185693, No Iterations 6
Pressure gradient source: uncorrected Ubar = 1.00064, pressure gradient = 5.31782
GAMG:  Solving for p, Initial residual = 0.000912464, Final residual = 9.04001e-05, No Iterations 19
time step continuity errors : sum local = 0.000153607, global = 1.47777e-16, cumulative = 1.61059e-16
Pressure gradient source: uncorrected Ubar = 1.00002, pressure gradient = 6.30257
smoothSolver:  Solving for omega, Initial residual = 0.00356648, Final residual = 0.00028298, No Iterations 6
smoothSolver:  Solving for k, Initial residual = 0.00533862, Final residual = 0.000425381, No Iterations 6
ExecutionTime = 0.202197 s  ClockTime = 1 s

Time = 66s

smoothSolver:  Solving for Ux, Initial residual = 0.00393322, Final residual = 0.000359845, No Iterations 5
smoothSolver:  Solving for Uy, Initial residual = 0.0241829, Final residual = 0.00185147, No Iterations 6
Pressure gradient source: uncorrected Ubar = 1.00062, pressure gradient = 5.29881
GAMG:  Solving for p, Initial residual = 0.000949631, Final residual = 8.45394e-05, No Iterations 21
time step continuity errors : sum local = 0.000131651, global = 8.26026e-17, cumulative = 2.43661e-16
Pressure gradient source: uncorrected Ubar = 1.00002, pressure gradient = 6.27782
smoothSolver:  Solving for omega, Initial residual = 0.00345839, Final residual = 0.000274753, No Iterations 6
smoothSolver:  Solving for k, Initial residual = 0.00530671, Final residual = 0.000422077, No Iterations 6
ExecutionTime = 0.205572 s  ClockTime = 1 s

Time = 67s

smoothSolver:  Solving for Ux, Initial residual = 0.00389341, Final residual = 0.000357243, No Iterations 5
smoothSolver:  Solving for Uy, Initial residual = 0.0239574, Final residual = 0.00183765, No Iterations 6
Pressure gradient source: uncorrected Ubar = 1.00062, pressure gradient = 5.26756
GAMG:  Solving for p, Initial residual = 0.000980232, Final residual = 8.99663e-05, No Iterations 21
time step continuity errors : sum local = 0.000126681, global = -3.58058e-17, cumulative = 2.07855e-16
Pressure gradient source: uncorrected Ubar = 1.00002, pressure gradient = 6.25247
smoothSolver:  Solving for omega, Initial residual = 0.00335295, Final residual = 0.000266605, No Iterations 6
smoothSolver:  Solving for k, Initial residual = 0.00528756, Final residual = 0.000425431, No Iterations 6
ExecutionTime = 0.208912 s  ClockTime = 1 s

Time = 68s

smoothSolver:  Solving for Ux, Initial residual = 0.00385499, Final residual = 0.000354711, No Iterations 5
smoothSolver:  Solving for Uy, Initial residual = 0.0237367, Final residual = 0.00182571, No Iterations 6
Pressure gradient source: uncorrected Ubar = 1.00061, pressure gradient = 5.22259
GAMG:  Solving for p, Initial residual = 0.00101721, Final residual = 9.34993e-05, No Iterations 21
time step continuity errors : sum local = 0.000119522, global = 4.68104e-17, cumulative = 2.54666e-16
Pressure gradient source: uncorrected Ubar = 1.00002, pressure gradient = 6.22421
smoothSolver:  Solving for omega, Initial residual = 0.00328043, Final residual = 0.000265054, No Iterations 6
smoothSolver:  Solving for k, Initial residual = 0.00524892, Final residual = 0.000420808, No Iterations 6
ExecutionTime = 0.21283 s  ClockTime = 1 s

Time = 69s

smoothSolver:  Solving for Ux, Initial residual = 0.0038184, Final residual = 0.000352188, No Iterations 5
smoothSolver:  Solving for Uy, Initial residual = 0.0234114, Final residual = 0.00180488, No Iterations 6
Pressure gradient source: uncorrected Ubar = 1.0006, pressure gradient = 5.19097
GAMG:  Solving for p, Initial residual = 0.00113069, Final residual = 9.7069e-05, No Iterations 21
time step continuity errors : sum local = 0.000112279, global = -3.7012e-17, cumulative = 2.17654e-16
Pressure gradient source: uncorrected Ubar = 1.00002, pressure gradient = 6.19588
smoothSolver:  Solving for omega, Initial residual = 0.00318876, Final residual = 0.000257895, No Iterations 6
smoothSolver:  Solving for k, Initial residual = 0.00522512, Final residual = 0.00042179, No Iterations 6
ExecutionTime = 0.217227 s  ClockTime = 1 s

Time = 70s

smoothSolver:  Solving for Ux, Initial residual = 0.00378233, Final residual = 0.000349663, No Iterations 5
smoothSolver:  Solving for Uy, Initial residual = 0.0232639, Final residual = 0.00179043, No Iterations 6
Pressure gradient source: uncorrected Ubar = 1.00061, pressure gradient = 5.14026
GAMG:  Solving for p, Initial residual = 0.0011904, Final residual = 0.000118469, No Iterations 19
time step continuity errors : sum local = 0.000122939, global = 7.05951e-17, cumulative = 2.88249e-16
Pressure gradient source: uncorrected Ubar = 1.00002, pressure gradient = 6.16402
smoothSolver:  Solving for omega, Initial residual = 0.0031104, Final residual = 0.000250115, No Iterations 6
smoothSolver:  Solving for k, Initial residual = 0.00519768, Final residual = 0.000418146, No Iterations 6
ExecutionTime = 0.220713 s  ClockTime = 1 s

Time = 71s

smoothSolver:  Solving for Ux, Initial residual = 0.00374743, Final residual = 0.000347288, No Iterations 5
smoothSolver:  Solving for Uy, Initial residual = 0.0230759, Final residual = 0.00178015, No Iterations 6
Pressure gradient source: uncorrected Ubar = 1.0006, pressure gradient = 5.09001
GAMG:  Solving for p, Initial residual = 0.00120772, Final residual = 0.000103774, No Iterations 21
time step continuity errors : sum local = 9.9644e-05, global = 3.71068e-17, cumulative = 3.25356e-16
Pressure gradient source: uncorrected Ubar = 1.00002, pressure gradient = 6.12931
smoothSolver:  Solving for omega, Initial residual = 0.00303131, Final residual = 0.000244368, No Iterations 6
smoothSolver:  Solving for k, Initial residual = 0.00517845, Final residual = 0.000420594, No Iterations 6
ExecutionTime = 0.224175 s  ClockTime = 1 s

Time = 72s

smoothSolver:  Solving for Ux, Initial residual = 0.003713, Final residual = 0.000344941, No Iterations 5
smoothSolver:  Solving for Uy, Initial residual = 0.0227924, Final residual = 0.00176379, No Iterations 6
Pressure gradient source: uncorrected Ubar = 1.0006, pressure gradient = 5.04632
GAMG:  Solving for p, Initial residual = 0.00127, Final residual = 0.000125331, No Iterations 19
time step continuity errors : sum local = 0.000106774, global = -1.36135e-17, cumulative = 3.11742e-16
Pressure gradient source: uncorrected Ubar = 1.00002, pressure gradient = 6.09332
smoothSolver:  Solving for omega, Initial residual = 0.00297799, Final residual = 0.000242246, No Iterations 6
smoothSolver:  Solving for k, Initial residual = 0.00513426, Final residual = 0.000412782, No Iterations 6
ExecutionTime = 0.227571 s  ClockTime = 1 s

Time = 73s

smoothSolver:  Solving for Ux, Initial residual = 0.00367867, Final residual = 0.000342699, No Iterations 5
smoothSolver:  Solving for Uy, Initial residual = 0.0224468, Final residual = 0.00173854, No Iterations 6
Pressure gradient source: uncorrected Ubar = 1.00059, pressure gradient = 4.99987
GAMG:  Solving for p, Initial residual = 0.00132245, Final residual = 0.000130551, No Iterations 19
time step continuity errors : sum local = 0.00010075, global = -6.14404e-17, cumulative = 2.50302e-16
Pressure gradient source: uncorrected Ubar = 1.00002, pressure gradient = 6.05581
smoothSolver:  Solving for omega, Initial residual = 0.0029136, Final residual = 0.000236245, No Iterations 6
smoothSolver:  Solving for k, Initial residual = 0.00510973, Final residual = 0.000412405, No Iterations 6
ExecutionTime = 0.230905 s  ClockTime = 1 s

Time = 74s

smoothSolver:  Solving for Ux, Initial residual = 0.00364584, Final residual = 0.000340549, No Iterations 5
smoothSolver:  Solving for Uy, Initial residual = 0.0219111, Final residual = 0.0017028, No Iterations 6
Pressure gradient source: uncorrected Ubar = 1.00059, pressure gradient = 4.94104
GAMG:  Solving for p, Initial residual = 0.00140307, Final residual = 0.000134452, No Iterations 19
time step continuity errors : sum local = 9.35018e-05, global = -8.97177e-18, cumulative = 2.4133e-16
Pressure gradient source: uncorrected Ubar = 1.00002, pressure gradient = 6.01478
smoothSolver:  Solving for omega, Initial residual = 0.00287293, Final residual = 0.000233743, No Iterations 6
smoothSolver:  Solving for k, Initial residual = 0.00508375, Final residual = 0.000409022, No Iterations 6
ExecutionTime = 0.234268 s  ClockTime = 1 s

Time = 75s

smoothSolver:  Solving for Ux, Initial residual = 0.00361417, Final residual = 0.000338419, No Iterations 5
smoothSolver:  Solving for Uy, Initial residual = 0.0214441, Final residual = 0.00166918, No Iterations 6
Pressure gradient source: uncorrected Ubar = 1.00059, pressure gradient = 4.89159
GAMG:  Solving for p, Initial residual = 0.00146881, Final residual = 0.000138048, No Iterations 19
time step continuity errors : sum local = 8.59076e-05, global = -4.01849e-17, cumulative = 2.01145e-16
Pressure gradient source: uncorrected Ubar = 1.00002, pressure gradient = 5.9725
smoothSolver:  Solving for omega, Initial residual = 0.00282418, Final residual = 0.000230132, No Iterations 6
smoothSolver:  Solving for k, Initial residual = 0.00506959, Final residual = 0.000411345, No Iterations 6
ExecutionTime = 0.237659 s  ClockTime = 1 s

Time = 76s

smoothSolver:  Solving for Ux, Initial residual = 0.00358354, Final residual = 0.000336322, No Iterations 5
smoothSolver:  Solving for Uy, Initial residual = 0.0208374, Final residual = 0.00162712, No Iterations 6
Pressure gradient source: uncorrected Ubar = 1.00059, pressure gradient = 4.8127
GAMG:  Solving for p, Initial residual = 0.00170977, Final residual = 0.000167785, No Iterations 17
time step continuity errors : sum local = 9.19812e-05, global = 6.57077e-17, cumulative = 2.66853e-16
Pressure gradient source: uncorrected Ubar = 1.00002, pressure gradient = 5.92392
smoothSolver:  Solving for omega, Initial residual = 0.0027811, Final residual = 0.000224538, No Iterations 6
smoothSolver:  Solving for k, Initial residual = 0.00504332, Final residual = 0.000407356, No Iterations 6
ExecutionTime = 0.240938 s  ClockTime = 1 s

Time = 77s

smoothSolver:  Solving for Ux, Initial residual = 0.00355425, Final residual = 0.000334349, No Iterations 5
smoothSolver:  Solving for Uy, Initial residual = 0.020428, Final residual = 0.00159406, No Iterations 6
Pressure gradient source: uncorrected Ubar = 1.00059, pressure gradient = 4.74994
GAMG:  Solving for p, Initial residual = 0.0017553, Final residual = 0.000171878, No Iterations 17
time step continuity errors : sum local = 8.54568e-05, global = -8.92603e-17, cumulative = 1.77593e-16
Pressure gradient source: uncorrected Ubar = 1.00003, pressure gradient = 5.87302
smoothSolver:  Solving for omega, Initial residual = 0.00274253, Final residual = 0.00022369, No Iterations 6
smoothSolver:  Solving for k, Initial residual = 0.00504006, Final residual = 0.00041008, No Iterations 6
ExecutionTime = 0.244211 s  ClockTime = 1 s

Time = 78s

smoothSolver:  Solving for Ux, Initial residual = 0.0035254, Final residual = 0.000332412, No Iterations 5
smoothSolver:  Solving for Uy, Initial residual = 0.0200183, Final residual = 0.00156167, No Iterations 6
Pressure gradient source: uncorrected Ubar = 1.00059, pressure gradient = 4.68241
GAMG:  Solving for p, Initial residual = 0.00189737, Final residual = 0.000184558, No Iterations 17
time step continuity errors : sum local = 8.14271e-05, global = 9.00836e-17, cumulative = 2.67676e-16
Pressure gradient source: uncorrected Ubar = 1.00003, pressure gradient = 5.8193
smoothSolver:  Solving for omega, Initial residual = 0.00270107, Final residual = 0.000217661, No Iterations 6
smoothSolver:  Solving for k, Initial residual = 0.00502642, Final residual = 0.00040815, No Iterations 6
ExecutionTime = 0.247392 s  ClockTime = 1 s

Time = 79s

smoothSolver:  Solving for Ux, Initial residual = 0.00349733, Final residual = 0.00033063, No Iterations 5
smoothSolver:  Solving for Uy, Initial residual = 0.0196847, Final residual = 0.00153715, No Iterations 6
Pressure gradient source: uncorrected Ubar = 1.00059, pressure gradient = 4.61433
GAMG:  Solving for p, Initial residual = 0.0019927, Final residual = 0.000190857, No Iterations 17
time step continuity errors : sum local = 7.48618e-05, global = 5.96989e-17, cumulative = 3.27375e-16
Pressure gradient source: uncorrected Ubar = 1.00003, pressure gradient = 5.76314
smoothSolver:  Solving for omega, Initial residual = 0.00267036, Final residual = 0.000216289, No Iterations 6
smoothSolver:  Solving for k, Initial residual = 0.00501055, Final residual = 0.000409528, No Iterations 6
ExecutionTime = 0.250543 s  ClockTime = 1 s

Time = 80s

smoothSolver:  Solving for Ux, Initial residual = 0.00346992, Final residual = 0.000328966, No Iterations 5
smoothSolver:  Solving for Uy, Initial residual = 0.0194282, Final residual = 0.00150906, No Iterations 6
Pressure gradient source: uncorrected Ubar = 1.00058, pressure gradient = 4.54367
GAMG:  Solving for p, Initial residual = 0.00216122, Final residual = 0.000199167, No Iterations 17
time step continuity errors : sum local = 6.85831e-05, global = -2.89347e-17, cumulative = 2.98441e-16
Pressure gradient source: uncorrected Ubar = 1.00003, pressure gradient = 5.70444
smoothSolver:  Solving for omega, Initial residual = 0.00263742, Final residual = 0.000216303, No Iterations 6
smoothSolver:  Solving for k, Initial residual = 0.00498867, Final residual = 0.000406679, No Iterations 6
ExecutionTime = 0.253683 s  ClockTime = 1 s

Time = 81s

smoothSolver:  Solving for Ux, Initial residual = 0.00344377, Final residual = 0.0003273, No Iterations 5
smoothSolver:  Solving for Uy, Initial residual = 0.0191247, Final residual = 0.00148028, No Iterations 6
Pressure gradient source: uncorrected Ubar = 1.00057, pressure gradient = 4.48238
GAMG:  Solving for p, Initial residual = 0.00237263, Final residual = 0.000210711, No Iterations 17
time step continuity errors : sum local = 6.32724e-05, global = -5.43456e-18, cumulative = 2.93006e-16
Pressure gradient source: uncorrected Ubar = 1.00003, pressure gradient = 5.64539
smoothSolver:  Solving for omega, Initial residual = 0.00259752, Final residual = 0.000209715, No Iterations 6
smoothSolver:  Solving for k, Initial residual = 0.00497117, Final residual = 0.000406714, No Iterations 6
ExecutionTime = 0.256873 s  ClockTime = 1 s

Time = 82s

smoothSolver:  Solving for Ux, Initial residual = 0.00341892, Final residual = 0.000325713, No Iterations 5
smoothSolver:  Solving for Uy, Initial residual = 0.0188729, Final residual = 0.0014533, No Iterations 6
Pressure gradient source: uncorrected Ubar = 1.00058, pressure gradient = 4.3981
GAMG:  Solving for p, Initial residual = 0.00288889, Final residual = 0.000260763, No Iterations 15
time step continuity errors : sum local = 6.63756e-05, global = -1.11944e-17, cumulative = 2.81812e-16
Pressure gradient source: uncorrected Ubar = 1.00003, pressure gradient = 5.58189
smoothSolver:  Solving for omega, Initial residual = 0.00256184, Final residual = 0.000208123, No Iterations 6
smoothSolver:  Solving for k, Initial residual = 0.00496629, Final residual = 0.000406338, No Iterations 6
ExecutionTime = 0.259938 s  ClockTime = 1 s

Time = 83s

smoothSolver:  Solving for Ux, Initial residual = 0.00339483, Final residual = 0.000324161, No Iterations 5
smoothSolver:  Solving for Uy, Initial residual = 0.0185637, Final residual = 0.00142382, No Iterations 6
Pressure gradient source: uncorrected Ubar = 1.00058, pressure gradient = 4.30887
GAMG:  Solving for p, Initial residual = 0.00302194, Final residual = 0.00026845, No Iterations 15
time step continuity errors : sum local = 6.00665e-05, global = -2.93107e-17, cumulative = 2.52501e-16
Pressure gradient source: uncorrected Ubar = 1.00003, pressure gradient = 5.51385
smoothSolver:  Solving for omega, Initial residual = 0.0025289, Final residual = 0.000206378, No Iterations 6
smoothSolver:  Solving for k, Initial residual = 0.00495565, Final residual = 0.000408036, No Iterations 6
ExecutionTime = 0.262997 s  ClockTime = 1 s

Time = 84s

smoothSolver:  Solving for Ux, Initial residual = 0.00337142, Final residual = 0.000322685, No Iterations 5
smoothSolver:  Solving for Uy, Initial residual = 0.0183419, Final residual = 0.00140302, No Iterations 6
Pressure gradient source: uncorrected Ubar = 1.00057, pressure gradient = 4.2383
GAMG:  Solving for p, Initial residual = 0.00327712, Final residual = 0.000282659, No Iterations 15
time step continuity errors : sum local = 5.45949e-05, global = 4.04543e-17, cumulative = 2.92955e-16
Pressure gradient source: uncorrected Ubar = 1.00003, pressure gradient = 5.44544
smoothSolver:  Solving for omega, Initial residual = 0.00248636, Final residual = 0.000200601, No Iterations 6
smoothSolver:  Solving for k, Initial residual = 0.00494234, Final residual = 0.000406448, No Iterations 6
ExecutionTime = 0.266089 s  ClockTime = 1 s

Time = 85s

smoothSolver:  Solving for Ux, Initial residual = 0.00334876, Final residual = 0.000321265, No Iterations 5
smoothSolver:  Solving for Uy, Initial residual = 0.0181018, Final residual = 0.00138393, No Iterations 6
Pressure gradient source: uncorrected Ubar = 1.00057, pressure gradient = 4.15588
GAMG:  Solving for p, Initial residual = 0.00360128, Final residual = 0.000300648, No Iterations 15
time step continuity errors : sum local = 4.95837e-05, global = -1.24412e-17, cumulative = 2.80514e-16
Pressure gradient source: uncorrected Ubar = 1.00003, pressure gradient = 5.37458
smoothSolver:  Solving for omega, Initial residual = 0.00245593, Final residual = 0.000199519, No Iterations 6
smoothSolver:  Solving for k, Initial residual = 0.00492535, Final residual = 0.000405914, No Iterations 6
ExecutionTime = 0.269155 s  ClockTime = 1 s

Time = 86s

smoothSolver:  Solving for Ux, Initial residual = 0.00332671, Final residual = 0.000319907, No Iterations 5
smoothSolver:  Solving for Uy, Initial residual = 0.0178865, Final residual = 0.0013582, No Iterations 6
Pressure gradient source: uncorrected Ubar = 1.00056, pressure gradient = 4.08775
GAMG:  Solving for p, Initial residual = 0.00400602, Final residual = 0.00033347, No Iterations 15
time step continuity errors : sum local = 4.55555e-05, global = -3.23634e-17, cumulative = 2.48151e-16
Pressure gradient source: uncorrected Ubar = 1.00003, pressure gradient = 5.30436
smoothSolver:  Solving for omega, Initial residual = 0.00241682, Final residual = 0.000195368, No Iterations 6
smoothSolver:  Solving for k, Initial residual = 0.00492109, Final residual = 0.000405981, No Iterations 6
ExecutionTime = 0.272222 s  ClockTime = 1 s

Time = 87s

smoothSolver:  Solving for Ux, Initial residual = 0.00330534, Final residual = 0.000318706, No Iterations 5
smoothSolver:  Solving for Uy, Initial residual = 0.0176087, Final residual = 0.0013422, No Iterations 6
Pressure gradient source: uncorrected Ubar = 1.00056, pressure gradient = 3.991
GAMG:  Solving for p, Initial residual = 0.00461818, Final residual = 0.00043864, No Iterations 13
time step continuity errors : sum local = 4.85516e-05, global = 2.51467e-17, cumulative = 2.73297e-16
Pressure gradient source: uncorrected Ubar = 1.00003, pressure gradient = 5.2294
smoothSolver:  Solving for omega, Initial residual = 0.00238654, Final residual = 0.000193207, No Iterations 6
smoothSolver:  Solving for k, Initial residual = 0.00490407, Final residual = 0.000406538, No Iterations 6
ExecutionTime = 0.275197 s  ClockTime = 1 s

Time = 88s

smoothSolver:  Solving for Ux, Initial residual = 0.00328471, Final residual = 0.000317559, No Iterations 5
smoothSolver:  Solving for Uy, Initial residual = 0.0174691, Final residual = 0.00132718, No Iterations 6
Pressure gradient source: uncorrected Ubar = 1.00055, pressure gradient = 3.92505
GAMG:  Solving for p, Initial residual = 0.00523204, Final residual = 0.000482147, No Iterations 13
time step continuity errors : sum local = 4.53315e-05, global = -2.93547e-17, cumulative = 2.43943e-16
Pressure gradient source: uncorrected Ubar = 1.00003, pressure gradient = 5.15627
smoothSolver:  Solving for omega, Initial residual = 0.00235543, Final residual = 0.000192063, No Iterations 6
smoothSolver:  Solving for k, Initial residual = 0.00489236, Final residual = 0.00040517, No Iterations 6
ExecutionTime = 0.278198 s  ClockTime = 1 s

Time = 89s

smoothSolver:  Solving for Ux, Initial residual = 0.00326539, Final residual = 0.000316426, No Iterations 5
smoothSolver:  Solving for Uy, Initial residual = 0.017203, Final residual = 0.00131162, No Iterations 6
Pressure gradient source: uncorrected Ubar = 1.00055, pressure gradient = 3.82944
GAMG:  Solving for p, Initial residual = 0.00701539, Final residual = 0.000572427, No Iterations 13
time step continuity errors : sum local = 4.29374e-05, global = 2.92464e-17, cumulative = 2.73189e-16
Pressure gradient source: uncorrected Ubar = 1.00003, pressure gradient = 5.07919
smoothSolver:  Solving for omega, Initial residual = 0.00232155, Final residual = 0.000187208, No Iterations 6
[...]
smoothSolver:  Solving for k, Initial residual = 2.27461e-05, Final residual = 9.25992e-06, No Iterations 2
ExecutionTime = 10.1497 s  ClockTime = 11 s

Time = 3911s

smoothSolver:  Solving for Ux, Initial residual = 5.74716e-06, Final residual = 5.74716e-06, No Iterations 0
smoothSolver:  Solving for Uy, Initial residual = 0.000115014, Final residual = 7.98894e-06, No Iterations 5
Pressure gradient source: uncorrected Ubar = 1, pressure gradient = 0.00382287
GAMG:  Solving for p, Initial residual = 3.49373e-05, Final residual = 2.22127e-06, No Iterations 4
time step continuity errors : sum local = 4.27236e-11, global = 7.5799e-18, cumulative = -1.17028e-17
Pressure gradient source: uncorrected Ubar = 1, pressure gradient = 0.00382282
smoothSolver:  Solving for omega, Initial residual = 7.82092e-06, Final residual = 7.82092e-06, No Iterations 0
smoothSolver:  Solving for k, Initial residual = 2.2777e-05, Final residual = 9.32237e-06, No Iterations 2
ExecutionTime = 10.1521 s  ClockTime = 11 s

Time = 3912s

smoothSolver:  Solving for Ux, Initial residual = 5.7663e-06, Final residual = 5.7663e-06, No Iterations 0
smoothSolver:  Solving for Uy, Initial residual = 0.000108371, Final residual = 7.3949e-06, No Iterations 5
Pressure gradient source: uncorrected Ubar = 1, pressure gradient = 0.00382282
GAMG:  Solving for p, Initial residual = 2.95639e-05, Final residual = 2.85445e-06, No Iterations 4
time step continuity errors : sum local = 5.22916e-11, global = 1.16941e-18, cumulative = -1.05334e-17
Pressure gradient source: uncorrected Ubar = 1, pressure gradient = 0.00382277
smoothSolver:  Solving for omega, Initial residual = 7.82133e-06, Final residual = 7.82133e-06, No Iterations 0
smoothSolver:  Solving for k, Initial residual = 2.26161e-05, Final residual = 9.20905e-06, No Iterations 2
ExecutionTime = 10.1545 s  ClockTime = 11 s

Time = 3913s

smoothSolver:  Solving for Ux, Initial residual = 5.78582e-06, Final residual = 5.78582e-06, No Iterations 0
smoothSolver:  Solving for Uy, Initial residual = 0.000127174, Final residual = 8.37629e-06, No Iterations 5
Pressure gradient source: uncorrected Ubar = 1, pressure gradient = 0.00382277
GAMG:  Solving for p, Initial residual = 3.82145e-05, Final residual = 2.11254e-06, No Iterations 4
time step continuity errors : sum local = 4.02419e-11, global = -8.11014e-19, cumulative = -1.13444e-17
Pressure gradient source: uncorrected Ubar = 1, pressure gradient = 0.00382272
smoothSolver:  Solving for omega, Initial residual = 7.82173e-06, Final residual = 7.82173e-06, No Iterations 0
smoothSolver:  Solving for k, Initial residual = 2.26125e-05, Final residual = 9.24992e-06, No Iterations 2
ExecutionTime = 10.1569 s  ClockTime = 11 s

Time = 3914s

smoothSolver:  Solving for Ux, Initial residual = 5.80635e-06, Final residual = 5.80635e-06, No Iterations 0
smoothSolver:  Solving for Uy, Initial residual = 0.000112204, Final residual = 7.57412e-06, No Iterations 5
Pressure gradient source: uncorrected Ubar = 1, pressure gradient = 0.00382272
GAMG:  Solving for p, Initial residual = 2.52775e-05, Final residual = 2.22286e-06, No Iterations 5
time step continuity errors : sum local = 4.12515e-11, global = 3.35139e-19, cumulative = -1.10093e-17
Pressure gradient source: uncorrected Ubar = 1, pressure gradient = 0.00382267
smoothSolver:  Solving for omega, Initial residual = 7.82214e-06, Final residual = 7.82214e-06, No Iterations 0
smoothSolver:  Solving for k, Initial residual = 2.24356e-05, Final residual = 9.1336e-06, No Iterations 2
ExecutionTime = 10.1594 s  ClockTime = 11 s

Time = 3915s

smoothSolver:  Solving for Ux, Initial residual = 5.82691e-06, Final residual = 5.82691e-06, No Iterations 0
smoothSolver:  Solving for Uy, Initial residual = 0.000113114, Final residual = 7.88206e-06, No Iterations 5
Pressure gradient source: uncorrected Ubar = 1, pressure gradient = 0.00382267
GAMG:  Solving for p, Initial residual = 3.26693e-05, Final residual = 1.90859e-06, No Iterations 4
time step continuity errors : sum local = 3.60703e-11, global = -7.55826e-18, cumulative = -1.85675e-17
Pressure gradient source: uncorrected Ubar = 1, pressure gradient = 0.00382262
smoothSolver:  Solving for omega, Initial residual = 7.82255e-06, Final residual = 7.82255e-06, No Iterations 0
smoothSolver:  Solving for k, Initial residual = 2.24638e-05, Final residual = 9.19539e-06, No Iterations 2
ExecutionTime = 10.1618 s  ClockTime = 11 s

Time = 3916s

smoothSolver:  Solving for Ux, Initial residual = 5.84722e-06, Final residual = 5.84722e-06, No Iterations 0
smoothSolver:  Solving for Uy, Initial residual = 0.00011363, Final residual = 7.20005e-06, No Iterations 5
Pressure gradient source: uncorrected Ubar = 1, pressure gradient = 0.00382262
GAMG:  Solving for p, Initial residual = 3.11804e-05, Final residual = 2.53103e-06, No Iterations 4
time step continuity errors : sum local = 4.51652e-11, global = -5.81002e-18, cumulative = -2.43776e-17
Pressure gradient source: uncorrected Ubar = 1, pressure gradient = 0.00382257
smoothSolver:  Solving for omega, Initial residual = 7.82296e-06, Final residual = 7.82296e-06, No Iterations 0
smoothSolver:  Solving for k, Initial residual = 2.22966e-05, Final residual = 9.07762e-06, No Iterations 2
ExecutionTime = 10.1643 s  ClockTime = 11 s

Time = 3917s

smoothSolver:  Solving for Ux, Initial residual = 5.86754e-06, Final residual = 5.86754e-06, No Iterations 0
smoothSolver:  Solving for Uy, Initial residual = 0.00012679, Final residual = 8.16727e-06, No Iterations 5
Pressure gradient source: uncorrected Ubar = 1, pressure gradient = 0.00382257
GAMG:  Solving for p, Initial residual = 3.60216e-05, Final residual = 1.67025e-06, No Iterations 4
time step continuity errors : sum local = 3.08445e-11, global = -4.50265e-19, cumulative = -2.48278e-17
Pressure gradient source: uncorrected Ubar = 1, pressure gradient = 0.00382252
smoothSolver:  Solving for omega, Initial residual = 7.82337e-06, Final residual = 7.82337e-06, No Iterations 0
smoothSolver:  Solving for k, Initial residual = 2.22901e-05, Final residual = 9.11556e-06, No Iterations 2
ExecutionTime = 10.1667 s  ClockTime = 11 s

Time = 3918s

smoothSolver:  Solving for Ux, Initial residual = 5.88789e-06, Final residual = 5.88789e-06, No Iterations 0
smoothSolver:  Solving for Uy, Initial residual = 0.000113681, Final residual = 7.38719e-06, No Iterations 5
Pressure gradient source: uncorrected Ubar = 1, pressure gradient = 0.00382252
GAMG:  Solving for p, Initial residual = 2.47812e-05, Final residual = 2.42901e-06, No Iterations 4
time step continuity errors : sum local = 4.22985e-11, global = 5.87457e-18, cumulative = -1.89533e-17
Pressure gradient source: uncorrected Ubar = 1, pressure gradient = 0.00382247
smoothSolver:  Solving for omega, Initial residual = 7.82378e-06, Final residual = 7.82378e-06, No Iterations 0
smoothSolver:  Solving for k, Initial residual = 2.21193e-05, Final residual = 9.00353e-06, No Iterations 2
ExecutionTime = 10.1691 s  ClockTime = 11 s

Time = 3919s

smoothSolver:  Solving for Ux, Initial residual = 5.91002e-06, Final residual = 5.91002e-06, No Iterations 0
smoothSolver:  Solving for Uy, Initial residual = 0.000113569, Final residual = 7.57218e-06, No Iterations 5
Pressure gradient source: uncorrected Ubar = 1, pressure gradient = 0.00382247
GAMG:  Solving for p, Initial residual = 3.14411e-05, Final residual = 1.58108e-06, No Iterations 4
time step continuity errors : sum local = 2.81415e-11, global = 3.42547e-19, cumulative = -1.86107e-17
Pressure gradient source: uncorrected Ubar = 1, pressure gradient = 0.00382242
smoothSolver:  Solving for omega, Initial residual = 7.82419e-06, Final residual = 7.82419e-06, No Iterations 0
smoothSolver:  Solving for k, Initial residual = 2.21452e-05, Final residual = 9.0637e-06, No Iterations 2
ExecutionTime = 10.1716 s  ClockTime = 11 s

Time = 3920s

smoothSolver:  Solving for Ux, Initial residual = 5.93327e-06, Final residual = 5.93327e-06, No Iterations 0
smoothSolver:  Solving for Uy, Initial residual = 0.000115025, Final residual = 6.89852e-06, No Iterations 5
Pressure gradient source: uncorrected Ubar = 1, pressure gradient = 0.00382242
GAMG:  Solving for p, Initial residual = 3.11747e-05, Final residual = 2.05222e-06, No Iterations 4
time step continuity errors : sum local = 3.48978e-11, global = -4.20092e-18, cumulative = -2.28116e-17
Pressure gradient source: uncorrected Ubar = 1, pressure gradient = 0.00382237
smoothSolver:  Solving for omega, Initial residual = 7.82459e-06, Final residual = 7.82459e-06, No Iterations 0
smoothSolver:  Solving for k, Initial residual = 2.19799e-05, Final residual = 8.94745e-06, No Iterations 2
ExecutionTime = 10.174 s  ClockTime = 11 s

Time = 3921s

smoothSolver:  Solving for Ux, Initial residual = 5.95644e-06, Final residual = 5.95644e-06, No Iterations 0
smoothSolver:  Solving for Uy, Initial residual = 0.000124398, Final residual = 7.81888e-06, No Iterations 5
Pressure gradient source: uncorrected Ubar = 1, pressure gradient = 0.00382237
GAMG:  Solving for p, Initial residual = 3.37483e-05, Final residual = 1.66242e-06, No Iterations 4
time step continuity errors : sum local = 2.81782e-11, global = 1.48647e-18, cumulative = -2.13252e-17
Pressure gradient source: uncorrected Ubar = 1, pressure gradient = 0.00382232
smoothSolver:  Solving for omega, Initial residual = 7.825e-06, Final residual = 7.825e-06, No Iterations 0
smoothSolver:  Solving for k, Initial residual = 2.19705e-05, Final residual = 8.9831e-06, No Iterations 2
ExecutionTime = 10.1764 s  ClockTime = 11 s

Time = 3922s

smoothSolver:  Solving for Ux, Initial residual = 5.97948e-06, Final residual = 5.97948e-06, No Iterations 0
smoothSolver:  Solving for Uy, Initial residual = 0.000114445, Final residual = 7.12569e-06, No Iterations 5
Pressure gradient source: uncorrected Ubar = 1, pressure gradient = 0.00382232
GAMG:  Solving for p, Initial residual = 2.46115e-05, Final residual = 2.19305e-06, No Iterations 4
time step continuity errors : sum local = 3.55e-11, global = -2.77644e-18, cumulative = -2.41016e-17
Pressure gradient source: uncorrected Ubar = 1, pressure gradient = 0.00382227
smoothSolver:  Solving for omega, Initial residual = 7.82541e-06, Final residual = 7.82541e-06, No Iterations 0
smoothSolver:  Solving for k, Initial residual = 2.17981e-05, Final residual = 8.86856e-06, No Iterations 2
ExecutionTime = 10.1788 s  ClockTime = 11 s

Time = 3923s

smoothSolver:  Solving for Ux, Initial residual = 6.00337e-06, Final residual = 6.00337e-06, No Iterations 0
smoothSolver:  Solving for Uy, Initial residual = 0.000109872, Final residual = 6.98034e-06, No Iterations 5
Pressure gradient source: uncorrected Ubar = 1, pressure gradient = 0.00382227
GAMG:  Solving for p, Initial residual = 2.94616e-05, Final residual = 1.25299e-06, No Iterations 4
time step continuity errors : sum local = 2.12046e-11, global = 5.3326e-18, cumulative = -1.8769e-17
Pressure gradient source: uncorrected Ubar = 1, pressure gradient = 0.00382222
smoothSolver:  Solving for omega, Initial residual = 7.82581e-06, Final residual = 7.82581e-06, No Iterations 0
smoothSolver:  Solving for k, Initial residual = 2.18317e-05, Final residual = 8.93677e-06, No Iterations 2
ExecutionTime = 10.1812 s  ClockTime = 11 s

Time = 3924s

smoothSolver:  Solving for Ux, Initial residual = 6.02919e-06, Final residual = 6.02919e-06, No Iterations 0
smoothSolver:  Solving for Uy, Initial residual = 0.000115693, Final residual = 1.12786e-05, No Iterations 4
Pressure gradient source: uncorrected Ubar = 1, pressure gradient = 0.00382222
GAMG:  Solving for p, Initial residual = 3.16323e-05, Final residual = 2.10063e-06, No Iterations 4
time step continuity errors : sum local = 3.6568e-11, global = 1.80387e-18, cumulative = -1.69651e-17
Pressure gradient source: uncorrected Ubar = 1, pressure gradient = 0.00382217
smoothSolver:  Solving for omega, Initial residual = 7.82622e-06, Final residual = 7.82622e-06, No Iterations 0
smoothSolver:  Solving for k, Initial residual = 2.16578e-05, Final residual = 8.81188e-06, No Iterations 2
ExecutionTime = 10.1837 s  ClockTime = 11 s

Time = 3925s

smoothSolver:  Solving for Ux, Initial residual = 6.05625e-06, Final residual = 6.05625e-06, No Iterations 0
smoothSolver:  Solving for Uy, Initial residual = 0.000119779, Final residual = 7.35524e-06, No Iterations 5
Pressure gradient source: uncorrected Ubar = 1, pressure gradient = 0.00382217
GAMG:  Solving for p, Initial residual = 3.13574e-05, Final residual = 1.16235e-06, No Iterations 4
time step continuity errors : sum local = 2.21048e-11, global = 3.11102e-19, cumulative = -1.6654e-17
Pressure gradient source: uncorrected Ubar = 1, pressure gradient = 0.00382212
smoothSolver:  Solving for omega, Initial residual = 7.82663e-06, Final residual = 7.82663e-06, No Iterations 0
smoothSolver:  Solving for k, Initial residual = 2.16515e-05, Final residual = 8.85088e-06, No Iterations 2
ExecutionTime = 10.1861 s  ClockTime = 11 s

Time = 3926s

smoothSolver:  Solving for Ux, Initial residual = 6.08334e-06, Final residual = 6.08334e-06, No Iterations 0
smoothSolver:  Solving for Uy, Initial residual = 0.000113043, Final residual = 6.83848e-06, No Iterations 5
Pressure gradient source: uncorrected Ubar = 1, pressure gradient = 0.00382212
GAMG:  Solving for p, Initial residual = 2.4362e-05, Final residual = 1.66563e-06, No Iterations 4
time step continuity errors : sum local = 3.09338e-11, global = -2.51756e-18, cumulative = -1.91716e-17
Pressure gradient source: uncorrected Ubar = 1, pressure gradient = 0.00382207
smoothSolver:  Solving for omega, Initial residual = 7.82703e-06, Final residual = 7.82703e-06, No Iterations 0
smoothSolver:  Solving for k, Initial residual = 2.1483e-05, Final residual = 8.73919e-06, No Iterations 2
ExecutionTime = 10.1885 s  ClockTime = 11 s

Time = 3927s

smoothSolver:  Solving for Ux, Initial residual = 6.11033e-06, Final residual = 6.11033e-06, No Iterations 0
smoothSolver:  Solving for Uy, Initial residual = 0.000107083, Final residual = 6.78856e-06, No Iterations 5
Pressure gradient source: uncorrected Ubar = 1, pressure gradient = 0.00382207
GAMG:  Solving for p, Initial residual = 2.69619e-05, Final residual = 1.5024e-06, No Iterations 4
time step continuity errors : sum local = 2.94695e-11, global = 5.22449e-18, cumulative = -1.39471e-17
Pressure gradient source: uncorrected Ubar = 1, pressure gradient = 0.00382202
smoothSolver:  Solving for omega, Initial residual = 7.82744e-06, Final residual = 7.82744e-06, No Iterations 0
smoothSolver:  Solving for k, Initial residual = 2.15128e-05, Final residual = 8.80444e-06, No Iterations 2
ExecutionTime = 10.1909 s  ClockTime = 11 s

Time = 3928s

smoothSolver:  Solving for Ux, Initial residual = 6.13718e-06, Final residual = 6.13718e-06, No Iterations 0
smoothSolver:  Solving for Uy, Initial residual = 0.000113256, Final residual = 1.0583e-05, No Iterations 4
Pressure gradient source: uncorrected Ubar = 1, pressure gradient = 0.00382202
GAMG:  Solving for p, Initial residual = 3.16025e-05, Final residual = 1.08644e-06, No Iterations 5
time step continuity errors : sum local = 2.2067e-11, global = 1.83911e-18, cumulative = -1.2108e-17
Pressure gradient source: uncorrected Ubar = 1, pressure gradient = 0.00382197
smoothSolver:  Solving for omega, Initial residual = 7.82784e-06, Final residual = 7.82784e-06, No Iterations 0
smoothSolver:  Solving for k, Initial residual = 2.13417e-05, Final residual = 8.68187e-06, No Iterations 2
ExecutionTime = 10.1934 s  ClockTime = 11 s

Time = 3929s

smoothSolver:  Solving for Ux, Initial residual = 6.16393e-06, Final residual = 6.16393e-06, No Iterations 0
smoothSolver:  Solving for Uy, Initial residual = 0.000115352, Final residual = 7.28372e-06, No Iterations 5
Pressure gradient source: uncorrected Ubar = 1, pressure gradient = 0.00382197
GAMG:  Solving for p, Initial residual = 2.87466e-05, Final residual = 1.27306e-06, No Iterations 4
time step continuity errors : sum local = 2.59818e-11, global = 1.32632e-18, cumulative = -1.07817e-17
Pressure gradient source: uncorrected Ubar = 1, pressure gradient = 0.00382192
smoothSolver:  Solving for omega, Initial residual = 7.82825e-06, Final residual = 7.82825e-06, No Iterations 0
smoothSolver:  Solving for k, Initial residual = 2.1333e-05, Final residual = 8.71889e-06, No Iterations 2
ExecutionTime = 10.1958 s  ClockTime = 11 s

Time = 3930s

smoothSolver:  Solving for Ux, Initial residual = 6.19054e-06, Final residual = 6.19054e-06, No Iterations 0
smoothSolver:  Solving for Uy, Initial residual = 0.000109225, Final residual = 6.55977e-06, No Iterations 5
Pressure gradient source: uncorrected Ubar = 1, pressure gradient = 0.00382192
GAMG:  Solving for p, Initial residual = 2.35652e-05, Final residual = 1.62322e-06, No Iterations 4
time step continuity errors : sum local = 3.19647e-11, global = 2.74333e-19, cumulative = -1.05073e-17
Pressure gradient source: uncorrected Ubar = 1, pressure gradient = 0.00382187
smoothSolver:  Solving for omega, Initial residual = 7.82865e-06, Final residual = 7.82865e-06, No Iterations 0
smoothSolver:  Solving for k, Initial residual = 2.11683e-05, Final residual = 8.60994e-06, No Iterations 2
ExecutionTime = 10.1984 s  ClockTime = 11 s

Time = 3931s

smoothSolver:  Solving for Ux, Initial residual = 6.21704e-06, Final residual = 6.21704e-06, No Iterations 0
smoothSolver:  Solving for Uy, Initial residual = 0.000100447, Final residual = 6.33781e-06, No Iterations 5
Pressure gradient source: uncorrected Ubar = 1, pressure gradient = 0.00382187
GAMG:  Solving for p, Initial residual = 2.46011e-05, Final residual = 2.36306e-06, No Iterations 3
time step continuity errors : sum local = 4.5804e-11, global = -2.05956e-19, cumulative = -1.07133e-17
Pressure gradient source: uncorrected Ubar = 1, pressure gradient = 0.00382183
smoothSolver:  Solving for omega, Initial residual = 7.82906e-06, Final residual = 7.82906e-06, No Iterations 0
smoothSolver:  Solving for k, Initial residual = 2.11877e-05, Final residual = 8.65624e-06, No Iterations 2
ExecutionTime = 10.2008 s  ClockTime = 11 s

Time = 3932s

smoothSolver:  Solving for Ux, Initial residual = 6.24342e-06, Final residual = 6.24342e-06, No Iterations 0
smoothSolver:  Solving for Uy, Initial residual = 0.000106845, Final residual = 1.03614e-05, No Iterations 4
Pressure gradient source: uncorrected Ubar = 1, pressure gradient = 0.00382183
GAMG:  Solving for p, Initial residual = 2.946e-05, Final residual = 2.06386e-06, No Iterations 4
time step continuity errors : sum local = 4.16554e-11, global = 8.09196e-18, cumulative = -2.62132e-18
Pressure gradient source: uncorrected Ubar = 1, pressure gradient = 0.00382178
smoothSolver:  Solving for omega, Initial residual = 7.82946e-06, Final residual = 7.82946e-06, No Iterations 0
smoothSolver:  Solving for k, Initial residual = 2.10288e-05, Final residual = 8.57353e-06, No Iterations 2
ExecutionTime = 10.2033 s  ClockTime = 11 s

Time = 3933s

smoothSolver:  Solving for Ux, Initial residual = 6.26968e-06, Final residual = 6.26968e-06, No Iterations 0
smoothSolver:  Solving for Uy, Initial residual = 9.93703e-05, Final residual = 9.83141e-06, No Iterations 4
Pressure gradient source: uncorrected Ubar = 1, pressure gradient = 0.00382178
GAMG:  Solving for p, Initial residual = 2.59486e-05, Final residual = 1.85761e-06, No Iterations 5
time step continuity errors : sum local = 3.89139e-11, global = 3.1015e-18, cumulative = 4.80183e-19
Pressure gradient source: uncorrected Ubar = 1, pressure gradient = 0.00382173
smoothSolver:  Solving for omega, Initial residual = 7.82987e-06, Final residual = 7.82987e-06, No Iterations 0
smoothSolver:  Solving for k, Initial residual = 2.10139e-05, Final residual = 8.56756e-06, No Iterations 2
ExecutionTime = 10.2068 s  ClockTime = 11 s


SIMPLE solution converged in 3933 iterations

End

