/*---------------------------------------------------------------------------*\
  =========                 |
  \\      /  F ield         | OpenFOAM: The Open Source CFD Toolbox
   \\    /   O peration     | Website:  https://openfoam.org
    \\  /    A nd           | Version:  10
     \\/     M anipulation  |
\*---------------------------------------------------------------------------*/
Build  : 10-e450dce21ea5
Exec   : blockMesh
Date   : Feb 20 2023
Time   : 14:11:53
Host   : "w530-R9YK46P"
PID    : 18625
I/O    : uncollated
Case   : /home/jdmezazeron/gitDanielMezaZ/turbulenceVisualized/Data/SimulationFiles/K20_Re962
nProcs : 1
sigFpe : Enabling floating point exception trapping (FOAM_SIGFPE).
fileModificationChecking : Monitoring run-time modified files using timeStampMaster (fileModificationSkew 10)
allowSystemOperations : Allowing user-supplied system call operations

// * * * * * * * * * * * * * * * * * * * * * * * * * * * * * * * * * * * * * //
Create time

Deleting polyMesh directory
    "/home/jdmezazeron/gitDanielMezaZ/turbulenceVisualized/Data/SimulationFiles/K20_Re962/constant/polyMesh"
Reading "blockMeshDict"

Creating block mesh from
    "system/blockMeshDict"
Creating block edges
No non-planar block faces defined
Creating topology blocks
Creating topology patches

Creating block mesh topology

Check topology

	Basic statistics
		Number of internal faces : 0
		Number of boundary faces : 6
		Number of defined boundary faces : 6
		Number of undefined boundary faces : 0
	Checking patch -> block consistency

Creating block offsets
Creating merge list .

Creating polyMesh from blockMesh
Creating patches
Creating cells
Creating points with scale 1
    Block 0 cell size :
        i : 0.5
        j : 0.00461374 .. 0.018455
        k : 2

Detected cyclic patches; ordering boundary faces

Writing polyMesh
----------------
Mesh Information
----------------
  boundingBox: (-1 0 -1) (1 1 1)
  nPoints: 1010
  nCells: 400
  nFaces: 1704
  nInternalFaces: 696
----------------
Patches
----------------
  patch 0 (start: 696 size: 100) name: inlet
  patch 1 (start: 796 size: 100) name: outlet
  patch 2 (start: 896 size: 4) name: fixedWalls-bottom
  patch 3 (start: 900 size: 4) name: fixedWalls-top
  patch 4 (start: 904 size: 800) name: frontAndBack

End

/*---------------------------------------------------------------------------*\
  =========                 |
  \\      /  F ield         | OpenFOAM: The Open Source CFD Toolbox
   \\    /   O peration     | Website:  https://openfoam.org
    \\  /    A nd           | Version:  10
     \\/     M anipulation  |
\*---------------------------------------------------------------------------*/
Build  : 10-e450dce21ea5
Exec   : simpleFoam
Date   : Feb 20 2023
Time   : 14:11:53
Host   : "w530-R9YK46P"
PID    : 18626
I/O    : uncollated
Case   : /home/jdmezazeron/gitDanielMezaZ/turbulenceVisualized/Data/SimulationFiles/K20_Re962
nProcs : 1
sigFpe : Enabling floating point exception trapping (FOAM_SIGFPE).
fileModificationChecking : Monitoring run-time modified files using timeStampMaster (fileModificationSkew 10)
allowSystemOperations : Allowing user-supplied system call operations

// * * * * * * * * * * * * * * * * * * * * * * * * * * * * * * * * * * * * * //
Create time

Create mesh for time = 0


SIMPLE: Convergence criteria found
        U: tolerance 0.0001
        p: tolerance 0.01
        omega: tolerance 0.0001

Reading field p

Reading field U

Reading/calculating face flux field phi

Selecting viscosity model Newtonian
Selecting turbulence model type RAS
Selecting RAS turbulence model kOmegaSST
Selecting patchDistMethod meshWave
RAS
{
    RASModel        kOmegaSST;
    turbulence      on;
    printCoeffs     on;
    alphaK1         0.85;
    alphaK2         1;
    alphaOmega1     0.5;
    alphaOmega2     0.856;
    gamma1          0.555556;
    gamma2          0.44;
    beta1           0.075;
    beta2           0.0828;
    betaStar        0.09;
    a1              0.31;
    b1              1;
    c1              10;
    F3              false;
}

No MRF models present

--> FOAM Warning : Creating fvModels from "system/fvOptions" rather than constant/fvModels
No fvModels present
--> FOAM Warning : Creating fvConstraints from "system/fvOptions"

Selecting finite volume constraint type meanVelocityForce
    Name: momentumSource
    - selecting all cells
    - selected 400 cell(s) with volume 4
    Initial pressure gradient = 0


Starting time loop

turbulenceFields stressComponents: storing fields:
    R

Time = 1s

smoothSolver:  Solving for Ux, Initial residual = 0, Final residual = 0, No Iterations 0
smoothSolver:  Solving for Uy, Initial residual = 0, Final residual = 0, No Iterations 0
Pressure gradient source: uncorrected Ubar = 0, pressure gradient = 1400.19
GAMG:  Solving for p, Initial residual = 0.999996, Final residual = 0.0672106, No Iterations 3
time step continuity errors : sum local = 9.36275e-17, global = -4.97786e-18, cumulative = -4.97786e-18
Pressure gradient source: uncorrected Ubar = 0.884652, pressure gradient = 161.51
smoothSolver:  Solving for omega, Initial residual = 0.172975, Final residual = 0.0104516, No Iterations 3
smoothSolver:  Solving for k, Initial residual = 1, Final residual = 0.0309213, No Iterations 2
ExecutionTime = 0.014014 s  ClockTime = 0 s

Time = 2s

smoothSolver:  Solving for Ux, Initial residual = 0.984778, Final residual = 0.0878313, No Iterations 6
smoothSolver:  Solving for Uy, Initial residual = 1, Final residual = 0.0879001, No Iterations 5
Pressure gradient source: uncorrected Ubar = 30.0165, pressure gradient = -1206.56
GAMG:  Solving for p, Initial residual = 1, Final residual = 0.0998415, No Iterations 10
time step continuity errors : sum local = 0.0236649, global = 4.51028e-17, cumulative = 4.0125e-17
Pressure gradient source: uncorrected Ubar = 4.70907, pressure gradient = -13.3659
smoothSolver:  Solving for omega, Initial residual = 0.196797, Final residual = 0.000844783, No Iterations 1
smoothSolver:  Solving for k, Initial residual = 0.979725, Final residual = 0.0168009, No Iterations 1
ExecutionTime = 0.016927 s  ClockTime = 0 s

Time = 3s

smoothSolver:  Solving for Ux, Initial residual = 0.479107, Final residual = 0.0385792, No Iterations 6
smoothSolver:  Solving for Uy, Initial residual = 0.45802, Final residual = 0.0236661, No Iterations 3
Pressure gradient source: uncorrected Ubar = -0.861153, pressure gradient = 98.7174
GAMG:  Solving for p, Initial residual = 0.20565, Final residual = 0.0162391, No Iterations 4
time step continuity errors : sum local = 0.00768132, global = 1.9082e-17, cumulative = 5.92069e-17
Pressure gradient source: uncorrected Ubar = 0.768487, pressure gradient = 0.576412
smoothSolver:  Solving for omega, Initial residual = 0.00931241, Final residual = 0.000201539, No Iterations 1
smoothSolver:  Solving for k, Initial residual = 0.291286, Final residual = 0.0158717, No Iterations 2
ExecutionTime = 0.019437 s  ClockTime = 0 s

Time = 4s

smoothSolver:  Solving for Ux, Initial residual = 0.0721855, Final residual = 0.00570235, No Iterations 4
smoothSolver:  Solving for Uy, Initial residual = 0.210045, Final residual = 0.020441, No Iterations 3
Pressure gradient source: uncorrected Ubar = 1.00929, pressure gradient = 0.126198
GAMG:  Solving for p, Initial residual = 0.130289, Final residual = 0.01175, No Iterations 14
time step continuity errors : sum local = 0.00751632, global = 1.39184e-17, cumulative = 7.31254e-17
Pressure gradient source: uncorrected Ubar = 1.00063, pressure gradient = 0.54602
smoothSolver:  Solving for omega, Initial residual = 0.00794444, Final residual = 0.000155225, No Iterations 1
smoothSolver:  Solving for k, Initial residual = 0.242026, Final residual = 0.021849, No Iterations 3
ExecutionTime = 0.022365 s  ClockTime = 0 s

Time = 5s

smoothSolver:  Solving for Ux, Initial residual = 0.0585401, Final residual = 0.00533958, No Iterations 4
smoothSolver:  Solving for Uy, Initial residual = 0.213562, Final residual = 0.020901, No Iterations 3
Pressure gradient source: uncorrected Ubar = 0.985207, pressure gradient = 1.36309
GAMG:  Solving for p, Initial residual = 0.143376, Final residual = 0.0127767, No Iterations 9
time step continuity errors : sum local = 0.00781034, global = 2.8274e-18, cumulative = 7.59528e-17
Pressure gradient source: uncorrected Ubar = 0.997164, pressure gradient = 0.702642
smoothSolver:  Solving for omega, Initial residual = 0.00336497, Final residual = 0.000131326, No Iterations 1
smoothSolver:  Solving for k, Initial residual = 0.46551, Final residual = 0.0313743, No Iterations 3
ExecutionTime = 0.025054 s  ClockTime = 0 s

Time = 6s

smoothSolver:  Solving for Ux, Initial residual = 0.052709, Final residual = 0.00484327, No Iterations 4
smoothSolver:  Solving for Uy, Initial residual = 0.403175, Final residual = 0.0203052, No Iterations 4
Pressure gradient source: uncorrected Ubar = 0.980113, pressure gradient = 1.99285
GAMG:  Solving for p, Initial residual = 0.147089, Final residual = 0.0126871, No Iterations 10
time step continuity errors : sum local = 0.00558848, global = -1.60428e-17, cumulative = 5.99099e-17
Pressure gradient source: uncorrected Ubar = 0.996514, pressure gradient = 0.928792
smoothSolver:  Solving for omega, Initial residual = 0.00246782, Final residual = 0.00021625, No Iterations 1
smoothSolver:  Solving for k, Initial residual = 0.460234, Final residual = 0.0376369, No Iterations 3
ExecutionTime = 0.027791 s  ClockTime = 0 s

Time = 7s

smoothSolver:  Solving for Ux, Initial residual = 0.0454474, Final residual = 0.00402117, No Iterations 4
smoothSolver:  Solving for Uy, Initial residual = 0.549439, Final residual = 0.0319178, No Iterations 4
Pressure gradient source: uncorrected Ubar = 0.975757, pressure gradient = 2.72911
GAMG:  Solving for p, Initial residual = 0.379477, Final residual = 0.0365453, No Iterations 7
time step continuity errors : sum local = 0.0101402, global = 3.14757e-18, cumulative = 6.30575e-17
Pressure gradient source: uncorrected Ubar = 0.996358, pressure gradient = 1.19925
smoothSolver:  Solving for omega, Initial residual = 0.00148381, Final residual = 0.000104104, No Iterations 2
smoothSolver:  Solving for k, Initial residual = 0.270257, Final residual = 0.0175916, No Iterations 4
ExecutionTime = 0.030434 s  ClockTime = 0 s

Time = 8s

smoothSolver:  Solving for Ux, Initial residual = 0.0399679, Final residual = 0.00350907, No Iterations 4
smoothSolver:  Solving for Uy, Initial residual = 0.529832, Final residual = 0.0516155, No Iterations 3
Pressure gradient source: uncorrected Ubar = 0.993862, pressure gradient = 1.7022
GAMG:  Solving for p, Initial residual = 0.188114, Final residual = 0.0183827, No Iterations 9
time step continuity errors : sum local = 0.00712636, global = 2.14723e-19, cumulative = 6.32722e-17
Pressure gradient source: uncorrected Ubar = 0.998894, pressure gradient = 1.28987
smoothSolver:  Solving for omega, Initial residual = 0.000887579, Final residual = 4.53171e-05, No Iterations 2
smoothSolver:  Solving for k, Initial residual = 0.118463, Final residual = 0.00973024, No Iterations 4
ExecutionTime = 0.033118 s  ClockTime = 0 s

Time = 9s

smoothSolver:  Solving for Ux, Initial residual = 0.0355045, Final residual = 0.00318539, No Iterations 4
smoothSolver:  Solving for Uy, Initial residual = 0.402775, Final residual = 0.0371734, No Iterations 3
Pressure gradient source: uncorrected Ubar = 1.00336, pressure gradient = 0.990999
GAMG:  Solving for p, Initial residual = 0.149547, Final residual = 0.0118214, No Iterations 7
time step continuity errors : sum local = 0.00471279, global = -2.1684e-19, cumulative = 6.30554e-17
Pressure gradient source: uncorrected Ubar = 1.00034, pressure gradient = 1.25921
smoothSolver:  Solving for omega, Initial residual = 0.000531996, Final residual = 4.4599e-05, No Iterations 2
smoothSolver:  Solving for k, Initial residual = 0.0726693, Final residual = 0.0070713, No Iterations 4
ExecutionTime = 0.03578 s  ClockTime = 0 s

Time = 10s

smoothSolver:  Solving for Ux, Initial residual = 0.0304459, Final residual = 0.00281444, No Iterations 4
smoothSolver:  Solving for Uy, Initial residual = 0.320984, Final residual = 0.0227171, No Iterations 4
Pressure gradient source: uncorrected Ubar = 1.00234, pressure gradient = 1.0309
GAMG:  Solving for p, Initial residual = 0.131069, Final residual = 0.0106545, No Iterations 8
time step continuity errors : sum local = 0.00323963, global = -2.36907e-17, cumulative = 3.93647e-17
Pressure gradient source: uncorrected Ubar = 1.00024, pressure gradient = 1.23565
smoothSolver:  Solving for omega, Initial residual = 0.000389553, Final residual = 3.00276e-05, No Iterations 3
smoothSolver:  Solving for k, Initial residual = 0.051889, Final residual = 0.00329804, No Iterations 5
ExecutionTime = 0.038502 s  ClockTime = 0 s

Time = 11s

smoothSolver:  Solving for Ux, Initial residual = 0.0266565, Final residual = 0.00252759, No Iterations 4
smoothSolver:  Solving for Uy, Initial residual = 0.269469, Final residual = 0.0220056, No Iterations 4
Pressure gradient source: uncorrected Ubar = 1.001, pressure gradient = 1.12876
GAMG:  Solving for p, Initial residual = 0.168139, Final residual = 0.0156608, No Iterations 9
time step continuity errors : sum local = 0.00346826, global = 1.32527e-17, cumulative = 5.26174e-17
Pressure gradient source: uncorrected Ubar = 1.00004, pressure gradient = 1.2309
smoothSolver:  Solving for omega, Initial residual = 0.000274617, Final residual = 1.90682e-05, No Iterations 4
smoothSolver:  Solving for k, Initial residual = 0.0413906, Final residual = 0.00301651, No Iterations 5
ExecutionTime = 0.041228 s  ClockTime = 0 s

Time = 12s

smoothSolver:  Solving for Ux, Initial residual = 0.0238707, Final residual = 0.00232188, No Iterations 4
smoothSolver:  Solving for Uy, Initial residual = 0.206554, Final residual = 0.0168487, No Iterations 4
Pressure gradient source: uncorrected Ubar = 0.999282, pressure gradient = 1.31578
GAMG:  Solving for p, Initial residual = 0.192682, Final residual = 0.0154527, No Iterations 9
time step continuity errors : sum local = 0.0028247, global = -1.40946e-17, cumulative = 3.85228e-17
Pressure gradient source: uncorrected Ubar = 0.999778, pressure gradient = 1.25708
smoothSolver:  Solving for omega, Initial residual = 0.000214149, Final residual = 1.78167e-05, No Iterations 4
smoothSolver:  Solving for k, Initial residual = 0.0344112, Final residual = 0.00274853, No Iterations 5
ExecutionTime = 0.044025 s  ClockTime = 0 s

Time = 13s

smoothSolver:  Solving for Ux, Initial residual = 0.0217408, Final residual = 0.00216122, No Iterations 4
smoothSolver:  Solving for Uy, Initial residual = 0.135573, Final residual = 0.0113088, No Iterations 4
Pressure gradient source: uncorrected Ubar = 1.00101, pressure gradient = 1.12534
GAMG:  Solving for p, Initial residual = 0.266566, Final residual = 0.0203799, No Iterations 11
time step continuity errors : sum local = 0.00246941, global = 1.4962e-17, cumulative = 5.34848e-17
Pressure gradient source: uncorrected Ubar = 0.999971, pressure gradient = 1.26085
smoothSolver:  Solving for omega, Initial residual = 0.000175834, Final residual = 1.09009e-05, No Iterations 5
smoothSolver:  Solving for k, Initial residual = 0.02939, Final residual = 0.00249433, No Iterations 5
ExecutionTime = 0.046887 s  ClockTime = 0 s

Time = 14s

smoothSolver:  Solving for Ux, Initial residual = 0.0200165, Final residual = 0.00129426, No Iterations 5
smoothSolver:  Solving for Uy, Initial residual = 0.109868, Final residual = 0.0101077, No Iterations 4
Pressure gradient source: uncorrected Ubar = 1.00124, pressure gradient = 1.0861
GAMG:  Solving for p, Initial residual = 0.190616, Final residual = 0.0147605, No Iterations 10
time step continuity errors : sum local = 0.00196818, global = 1.07334e-17, cumulative = 6.42182e-17
Pressure gradient source: uncorrected Ubar = 1.00003, pressure gradient = 1.25678
smoothSolver:  Solving for omega, Initial residual = 0.000148832, Final residual = 1.09202e-05, No Iterations 5
smoothSolver:  Solving for k, Initial residual = 0.0249806, Final residual = 0.00219929, No Iterations 5
ExecutionTime = 0.04971 s  ClockTime = 0 s

Time = 15s

smoothSolver:  Solving for Ux, Initial residual = 0.0185208, Final residual = 0.00121795, No Iterations 5
smoothSolver:  Solving for Uy, Initial residual = 0.104024, Final residual = 0.0101205, No Iterations 4
Pressure gradient source: uncorrected Ubar = 1.00174, pressure gradient = 0.993059
GAMG:  Solving for p, Initial residual = 0.131025, Final residual = 0.0121174, No Iterations 8
time step continuity errors : sum local = 0.00175568, global = 7.58518e-19, cumulative = 6.49767e-17
Pressure gradient source: uncorrected Ubar = 1.00009, pressure gradient = 1.24368
smoothSolver:  Solving for omega, Initial residual = 0.00013307, Final residual = 1.0831e-05, No Iterations 5
smoothSolver:  Solving for k, Initial residual = 0.0215624, Final residual = 0.00195179, No Iterations 5
ExecutionTime = 0.052421 s  ClockTime = 0 s

Time = 16s

smoothSolver:  Solving for Ux, Initial residual = 0.0172693, Final residual = 0.00115426, No Iterations 5
smoothSolver:  Solving for Uy, Initial residual = 0.0897706, Final residual = 0.00557863, No Iterations 5
Pressure gradient source: uncorrected Ubar = 1.00181, pressure gradient = 0.950627
GAMG:  Solving for p, Initial residual = 0.11773, Final residual = 0.00966169, No Iterations 10
time step continuity errors : sum local = 0.0010362, global = 7.98233e-18, cumulative = 7.2959e-17
Pressure gradient source: uncorrected Ubar = 1.0001, pressure gradient = 1.22741
smoothSolver:  Solving for omega, Initial residual = 0.000119128, Final residual = 1.04971e-05, No Iterations 5
smoothSolver:  Solving for k, Initial residual = 0.0189733, Final residual = 0.0017437, No Iterations 5
ExecutionTime = 0.055305 s  ClockTime = 0 s

Time = 17s

smoothSolver:  Solving for Ux, Initial residual = 0.0162047, Final residual = 0.00109942, No Iterations 5
smoothSolver:  Solving for Uy, Initial residual = 0.0737261, Final residual = 0.00507282, No Iterations 5
Pressure gradient source: uncorrected Ubar = 1.00176, pressure gradient = 0.923188
GAMG:  Solving for p, Initial residual = 0.100455, Final residual = 0.00886473, No Iterations 13
time step continuity errors : sum local = 0.000976994, global = 1.15605e-17, cumulative = 8.45196e-17
Pressure gradient source: uncorrected Ubar = 1.0001, pressure gradient = 1.20952
smoothSolver:  Solving for omega, Initial residual = 0.000114793, Final residual = 1.0434e-05, No Iterations 5
smoothSolver:  Solving for k, Initial residual = 0.0170201, Final residual = 0.0015664, No Iterations 5
ExecutionTime = 0.05829 s  ClockTime = 0 s

Time = 18s

smoothSolver:  Solving for Ux, Initial residual = 0.0152581, Final residual = 0.00104969, No Iterations 5
smoothSolver:  Solving for Uy, Initial residual = 0.0585694, Final residual = 0.00463129, No Iterations 5
Pressure gradient source: uncorrected Ubar = 1.00166, pressure gradient = 0.905317
GAMG:  Solving for p, Initial residual = 0.0613726, Final residual = 0.00537178, No Iterations 16
time step continuity errors : sum local = 0.000848151, global = 9.75782e-19, cumulative = 8.54953e-17
Pressure gradient source: uncorrected Ubar = 1.0001, pressure gradient = 1.19074
smoothSolver:  Solving for omega, Initial residual = 0.000103455, Final residual = 9.94705e-06, No Iterations 5
smoothSolver:  Solving for k, Initial residual = 0.0154691, Final residual = 0.00143271, No Iterations 5
ExecutionTime = 0.061388 s  ClockTime = 0 s

Time = 19s

smoothSolver:  Solving for Ux, Initial residual = 0.0144657, Final residual = 0.00100985, No Iterations 5
smoothSolver:  Solving for Uy, Initial residual = 0.051693, Final residual = 0.00426483, No Iterations 5
Pressure gradient source: uncorrected Ubar = 1.00165, pressure gradient = 0.868819
GAMG:  Solving for p, Initial residual = 0.0406179, Final residual = 0.00400267, No Iterations 13
time step continuity errors : sum local = 0.000792137, global = -4.68907e-18, cumulative = 8.08063e-17
Pressure gradient source: uncorrected Ubar = 1.00011, pressure gradient = 1.16926
smoothSolver:  Solving for omega, Initial residual = 9.8054e-05, Final residual = 9.78225e-06, No Iterations 5
smoothSolver:  Solving for k, Initial residual = 0.0143208, Final residual = 0.00132564, No Iterations 5
ExecutionTime = 0.064393 s  ClockTime = 0 s

Time = 20s

smoothSolver:  Solving for Ux, Initial residual = 0.0137535, Final residual = 0.000970742, No Iterations 5
smoothSolver:  Solving for Uy, Initial residual = 0.0444717, Final residual = 0.00383045, No Iterations 5
Pressure gradient source: uncorrected Ubar = 1.00154, pressure gradient = 0.852423
GAMG:  Solving for p, Initial residual = 0.0283778, Final residual = 0.00264458, No Iterations 17
time step continuity errors : sum local = 0.000580232, global = 1.72659e-17, cumulative = 9.80722e-17
Pressure gradient source: uncorrected Ubar = 1.0001, pressure gradient = 1.14823
smoothSolver:  Solving for omega, Initial residual = 9.41711e-05, Final residual = 9.70215e-06, No Iterations 5
smoothSolver:  Solving for k, Initial residual = 0.0133997, Final residual = 0.00126522, No Iterations 5
ExecutionTime = 0.067593 s  ClockTime = 0 s

Time = 21s

smoothSolver:  Solving for Ux, Initial residual = 0.0131059, Final residual = 0.000937938, No Iterations 5
smoothSolver:  Solving for Uy, Initial residual = 0.0395011, Final residual = 0.00361744, No Iterations 5
Pressure gradient source: uncorrected Ubar = 1.00147, pressure gradient = 0.830237
GAMG:  Solving for p, Initial residual = 0.0214307, Final residual = 0.00210533, No Iterations 15
time step continuity errors : sum local = 0.000481232, global = 1.11673e-17, cumulative = 1.09239e-16
Pressure gradient source: uncorrected Ubar = 1.0001, pressure gradient = 1.12661
smoothSolver:  Solving for omega, Initial residual = 8.85075e-05, Final residual = 9.35507e-06, No Iterations 5
smoothSolver:  Solving for k, Initial residual = 0.0126428, Final residual = 0.0012197, No Iterations 5
ExecutionTime = 0.070666 s  ClockTime = 0 s

Time = 22s

smoothSolver:  Solving for Ux, Initial residual = 0.0125473, Final residual = 0.000907836, No Iterations 5
smoothSolver:  Solving for Uy, Initial residual = 0.0366981, Final residual = 0.00357254, No Iterations 5
Pressure gradient source: uncorrected Ubar = 1.00142, pressure gradient = 0.806644
GAMG:  Solving for p, Initial residual = 0.017097, Final residual = 0.00164776, No Iterations 13
time step continuity errors : sum local = 0.000369132, global = -1.99493e-17, cumulative = 8.92902e-17
Pressure gradient source: uncorrected Ubar = 1.0001, pressure gradient = 1.105
smoothSolver:  Solving for omega, Initial residual = 8.54461e-05, Final residual = 9.19283e-06, No Iterations 5
smoothSolver:  Solving for k, Initial residual = 0.0120126, Final residual = 0.00118737, No Iterations 5
ExecutionTime = 0.073648 s  ClockTime = 0 s

Time = 23s

smoothSolver:  Solving for Ux, Initial residual = 0.0120327, Final residual = 0.000878868, No Iterations 5
smoothSolver:  Solving for Uy, Initial residual = 0.0354059, Final residual = 0.00226538, No Iterations 6
Pressure gradient source: uncorrected Ubar = 1.00138, pressure gradient = 0.779949
GAMG:  Solving for p, Initial residual = 0.0138134, Final residual = 0.0011869, No Iterations 12
time step continuity errors : sum local = 0.000263046, global = -8.53809e-18, cumulative = 8.07521e-17
Pressure gradient source: uncorrected Ubar = 1.00009, pressure gradient = 1.08267
smoothSolver:  Solving for omega, Initial residual = 8.14982e-05, Final residual = 8.80588e-06, No Iterations 5
smoothSolver:  Solving for k, Initial residual = 0.0114934, Final residual = 0.00073566, No Iterations 6
ExecutionTime = 0.076578 s  ClockTime = 0 s

Time = 24s

smoothSolver:  Solving for Ux, Initial residual = 0.0115658, Final residual = 0.000855309, No Iterations 5
smoothSolver:  Solving for Uy, Initial residual = 0.0354996, Final residual = 0.00227215, No Iterations 6
Pressure gradient source: uncorrected Ubar = 1.00134, pressure gradient = 0.751756
GAMG:  Solving for p, Initial residual = 0.0120807, Final residual = 0.000993652, No Iterations 10
time step continuity errors : sum local = 0.00020781, global = 2.28767e-17, cumulative = 1.03629e-16
Pressure gradient source: uncorrected Ubar = 1.00009, pressure gradient = 1.05988
smoothSolver:  Solving for omega, Initial residual = 7.91953e-05, Final residual = 8.67785e-06, No Iterations 5
smoothSolver:  Solving for k, Initial residual = 0.0109947, Final residual = 0.000718623, No Iterations 6
ExecutionTime = 0.079434 s  ClockTime = 0 s

Time = 25s

smoothSolver:  Solving for Ux, Initial residual = 0.0111527, Final residual = 0.000832272, No Iterations 5
smoothSolver:  Solving for Uy, Initial residual = 0.0354672, Final residual = 0.00230196, No Iterations 6
Pressure gradient source: uncorrected Ubar = 1.00127, pressure gradient = 0.733786
GAMG:  Solving for p, Initial residual = 0.0100763, Final residual = 0.0009981, No Iterations 8
time step continuity errors : sum local = 0.000193661, global = 8.0637e-18, cumulative = 1.11692e-16
Pressure gradient source: uncorrected Ubar = 1.00009, pressure gradient = 1.03769
smoothSolver:  Solving for omega, Initial residual = 7.65386e-05, Final residual = 8.59584e-06, No Iterations 5
smoothSolver:  Solving for k, Initial residual = 0.0105459, Final residual = 0.000697556, No Iterations 6
ExecutionTime = 0.082189 s  ClockTime = 0 s

Time = 26s

smoothSolver:  Solving for Ux, Initial residual = 0.0107618, Final residual = 0.000809757, No Iterations 5
smoothSolver:  Solving for Uy, Initial residual = 0.0356882, Final residual = 0.00232332, No Iterations 6
Pressure gradient source: uncorrected Ubar = 1.00117, pressure gradient = 0.726514
GAMG:  Solving for p, Initial residual = 0.00965495, Final residual = 0.00075827, No Iterations 9
time step continuity errors : sum local = 0.000139899, global = 9.82557e-18, cumulative = 1.21518e-16
Pressure gradient source: uncorrected Ubar = 1.00008, pressure gradient = 1.01745
smoothSolver:  Solving for omega, Initial residual = 7.45758e-05, Final residual = 8.34616e-06, No Iterations 5
smoothSolver:  Solving for k, Initial residual = 0.0101402, Final residual = 0.000680187, No Iterations 6
ExecutionTime = 0.085102 s  ClockTime = 0 s

Time = 27s

smoothSolver:  Solving for Ux, Initial residual = 0.0104018, Final residual = 0.000790818, No Iterations 5
smoothSolver:  Solving for Uy, Initial residual = 0.0348538, Final residual = 0.00230035, No Iterations 6
Pressure gradient source: uncorrected Ubar = 1.00111, pressure gradient = 0.711333
GAMG:  Solving for p, Initial residual = 0.00867762, Final residual = 0.000772671, No Iterations 9
time step continuity errors : sum local = 0.000136801, global = -2.04101e-17, cumulative = 1.01108e-16
Pressure gradient source: uncorrected Ubar = 1.00007, pressure gradient = 0.997844
smoothSolver:  Solving for omega, Initial residual = 7.23547e-05, Final residual = 8.18979e-06, No Iterations 5
smoothSolver:  Solving for k, Initial residual = 0.00980383, Final residual = 0.000667308, No Iterations 6
ExecutionTime = 0.087927 s  ClockTime = 0 s

Time = 28s

smoothSolver:  Solving for Ux, Initial residual = 0.0100807, Final residual = 0.000772328, No Iterations 5
smoothSolver:  Solving for Uy, Initial residual = 0.034085, Final residual = 0.00227198, No Iterations 6
Pressure gradient source: uncorrected Ubar = 1.00103, pressure gradient = 0.702512
GAMG:  Solving for p, Initial residual = 0.00842484, Final residual = 0.000790434, No Iterations 9
time step continuity errors : sum local = 0.000138919, global = -1.09843e-17, cumulative = 9.01236e-17
Pressure gradient source: uncorrected Ubar = 1.00006, pressure gradient = 0.979622
smoothSolver:  Solving for omega, Initial residual = 7.00739e-05, Final residual = 7.97009e-06, No Iterations 5
smoothSolver:  Solving for k, Initial residual = 0.00948863, Final residual = 0.000655417, No Iterations 6
ExecutionTime = 0.090729 s  ClockTime = 0 s

Time = 29s

smoothSolver:  Solving for Ux, Initial residual = 0.00978353, Final residual = 0.000753347, No Iterations 5
smoothSolver:  Solving for Uy, Initial residual = 0.0329682, Final residual = 0.00223314, No Iterations 6
Pressure gradient source: uncorrected Ubar = 1.00097, pressure gradient = 0.692811
GAMG:  Solving for p, Initial residual = 0.00795841, Final residual = 0.000674181, No Iterations 11
time step continuity errors : sum local = 0.000121531, global = -1.36338e-17, cumulative = 7.64897e-17
Pressure gradient source: uncorrected Ubar = 1.00006, pressure gradient = 0.962434
smoothSolver:  Solving for omega, Initial residual = 6.82477e-05, Final residual = 7.85582e-06, No Iterations 5
smoothSolver:  Solving for k, Initial residual = 0.00920719, Final residual = 0.000643353, No Iterations 6
ExecutionTime = 0.093766 s  ClockTime = 0 s

Time = 30s

smoothSolver:  Solving for Ux, Initial residual = 0.00950533, Final residual = 0.000731761, No Iterations 5
smoothSolver:  Solving for Uy, Initial residual = 0.0315609, Final residual = 0.00214784, No Iterations 6
Pressure gradient source: uncorrected Ubar = 1.00086, pressure gradient = 0.69812
GAMG:  Solving for p, Initial residual = 0.00706602, Final residual = 0.000622607, No Iterations 11
time step continuity errors : sum local = 0.000111136, global = 3.15096e-18, cumulative = 7.96407e-17
Pressure gradient source: uncorrected Ubar = 1.00005, pressure gradient = 0.94798
smoothSolver:  Solving for omega, Initial residual = 6.64778e-05, Final residual = 7.67401e-06, No Iterations 5
smoothSolver:  Solving for k, Initial residual = 0.00886088, Final residual = 0.000627994, No Iterations 6
ExecutionTime = 0.097022 s  ClockTime = 0 s

Time = 31s

smoothSolver:  Solving for Ux, Initial residual = 0.00921831, Final residual = 0.000710356, No Iterations 5
smoothSolver:  Solving for Uy, Initial residual = 0.0297792, Final residual = 0.00204891, No Iterations 6
Pressure gradient source: uncorrected Ubar = 1.0008, pressure gradient = 0.696715
GAMG:  Solving for p, Initial residual = 0.00598544, Final residual = 0.000549953, No Iterations 11
time step continuity errors : sum local = 9.79265e-05, global = 1.51111e-17, cumulative = 9.47518e-17
Pressure gradient source: uncorrected Ubar = 1.00004, pressure gradient = 0.93503
smoothSolver:  Solving for omega, Initial residual = 6.46591e-05, Final residual = 7.47875e-06, No Iterations 5
smoothSolver:  Solving for k, Initial residual = 0.00859119, Final residual = 0.000617746, No Iterations 6
ExecutionTime = 0.100143 s  ClockTime = 0 s

Time = 32s

smoothSolver:  Solving for Ux, Initial residual = 0.00892969, Final residual = 0.000690386, No Iterations 5
smoothSolver:  Solving for Uy, Initial residual = 0.0281581, Final residual = 0.00195579, No Iterations 6
Pressure gradient source: uncorrected Ubar = 1.00075, pressure gradient = 0.690822
GAMG:  Solving for p, Initial residual = 0.00536031, Final residual = 0.000468963, No Iterations 11
time step continuity errors : sum local = 8.28444e-05, global = -1.13841e-17, cumulative = 8.33677e-17
Pressure gradient source: uncorrected Ubar = 1.00004, pressure gradient = 0.922876
smoothSolver:  Solving for omega, Initial residual = 6.29812e-05, Final residual = 7.32649e-06, No Iterations 5
smoothSolver:  Solving for k, Initial residual = 0.0083587, Final residual = 0.000608704, No Iterations 6
ExecutionTime = 0.103231 s  ClockTime = 0 s

Time = 33s

smoothSolver:  Solving for Ux, Initial residual = 0.00864705, Final residual = 0.000671538, No Iterations 5
smoothSolver:  Solving for Uy, Initial residual = 0.0264878, Final residual = 0.00185618, No Iterations 6
Pressure gradient source: uncorrected Ubar = 1.00071, pressure gradient = 0.686268
GAMG:  Solving for p, Initial residual = 0.00477806, Final residual = 0.000412346, No Iterations 11
time step continuity errors : sum local = 7.28029e-05, global = -3.92684e-18, cumulative = 7.94408e-17
Pressure gradient source: uncorrected Ubar = 1.00003, pressure gradient = 0.91153
smoothSolver:  Solving for omega, Initial residual = 6.11713e-05, Final residual = 7.15894e-06, No Iterations 5
smoothSolver:  Solving for k, Initial residual = 0.00817068, Final residual = 0.000599957, No Iterations 6
ExecutionTime = 0.106166 s  ClockTime = 0 s

Time = 34s

smoothSolver:  Solving for Ux, Initial residual = 0.00838453, Final residual = 0.000653976, No Iterations 5
smoothSolver:  Solving for Uy, Initial residual = 0.0251164, Final residual = 0.00177637, No Iterations 6
Pressure gradient source: uncorrected Ubar = 1.00067, pressure gradient = 0.681491
GAMG:  Solving for p, Initial residual = 0.00440229, Final residual = 0.000399636, No Iterations 10
time step continuity errors : sum local = 7.03305e-05, global = 9.42239e-18, cumulative = 8.88632e-17
Pressure gradient source: uncorrected Ubar = 1.00003, pressure gradient = 0.900863
smoothSolver:  Solving for omega, Initial residual = 5.94736e-05, Final residual = 6.97339e-06, No Iterations 5
smoothSolver:  Solving for k, Initial residual = 0.00802022, Final residual = 0.000595817, No Iterations 6
ExecutionTime = 0.10899 s  ClockTime = 0 s

Time = 35s

smoothSolver:  Solving for Ux, Initial residual = 0.00815394, Final residual = 0.000637874, No Iterations 5
smoothSolver:  Solving for Uy, Initial residual = 0.0237961, Final residual = 0.00169977, No Iterations 6
Pressure gradient source: uncorrected Ubar = 1.00064, pressure gradient = 0.675208
GAMG:  Solving for p, Initial residual = 0.00404427, Final residual = 0.00035088, No Iterations 10
time step continuity errors : sum local = 6.10012e-05, global = -6.03764e-18, cumulative = 8.28256e-17
Pressure gradient source: uncorrected Ubar = 1.00003, pressure gradient = 0.890623
smoothSolver:  Solving for omega, Initial residual = 5.78446e-05, Final residual = 6.79789e-06, No Iterations 5
smoothSolver:  Solving for k, Initial residual = 0.00788633, Final residual = 0.000591239, No Iterations 6
ExecutionTime = 0.11187 s  ClockTime = 0 s

Time = 36s

smoothSolver:  Solving for Ux, Initial residual = 0.0079395, Final residual = 0.000623577, No Iterations 5
smoothSolver:  Solving for Uy, Initial residual = 0.022648, Final residual = 0.00163326, No Iterations 6
Pressure gradient source: uncorrected Ubar = 1.00061, pressure gradient = 0.668039
GAMG:  Solving for p, Initial residual = 0.00375225, Final residual = 0.000310956, No Iterations 10
time step continuity errors : sum local = 5.26158e-05, global = 1.02948e-17, cumulative = 9.31204e-17
Pressure gradient source: uncorrected Ubar = 1.00003, pressure gradient = 0.880636
smoothSolver:  Solving for omega, Initial residual = 5.61628e-05, Final residual = 6.62088e-06, No Iterations 5
smoothSolver:  Solving for k, Initial residual = 0.00778704, Final residual = 0.000593083, No Iterations 6
ExecutionTime = 0.11474 s  ClockTime = 0 s

Time = 37s

smoothSolver:  Solving for Ux, Initial residual = 0.00773205, Final residual = 0.000610843, No Iterations 5
smoothSolver:  Solving for Uy, Initial residual = 0.0214004, Final residual = 0.00156027, No Iterations 6
Pressure gradient source: uncorrected Ubar = 1.00059, pressure gradient = 0.660576
GAMG:  Solving for p, Initial residual = 0.00347512, Final residual = 0.000281305, No Iterations 10
time step continuity errors : sum local = 4.61704e-05, global = -5.69545e-18, cumulative = 8.74249e-17
Pressure gradient source: uncorrected Ubar = 1.00003, pressure gradient = 0.870858
smoothSolver:  Solving for omega, Initial residual = 5.45174e-05, Final residual = 9.83609e-06, No Iterations 4
smoothSolver:  Solving for k, Initial residual = 0.00770944, Final residual = 0.000592239, No Iterations 6
ExecutionTime = 0.117584 s  ClockTime = 0 s

Time = 38s

smoothSolver:  Solving for Ux, Initial residual = 0.00754798, Final residual = 0.000599579, No Iterations 5
smoothSolver:  Solving for Uy, Initial residual = 0.0202827, Final residual = 0.00148854, No Iterations 6
Pressure gradient source: uncorrected Ubar = 1.00059, pressure gradient = 0.643595
GAMG:  Solving for p, Initial residual = 0.00323169, Final residual = 0.000249129, No Iterations 10
time step continuity errors : sum local = 3.94233e-05, global = -8.08916e-18, cumulative = 7.93358e-17
Pressure gradient source: uncorrected Ubar = 1.00003, pressure gradient = 0.860114
smoothSolver:  Solving for omega, Initial residual = 5.33736e-05, Final residual = 9.68736e-06, No Iterations 4
smoothSolver:  Solving for k, Initial residual = 0.00765178, Final residual = 0.000595139, No Iterations 6
ExecutionTime = 0.120489 s  ClockTime = 0 s

Time = 39s

smoothSolver:  Solving for Ux, Initial residual = 0.00738915, Final residual = 0.000589176, No Iterations 5
smoothSolver:  Solving for Uy, Initial residual = 0.0192249, Final residual = 0.00142314, No Iterations 6
Pressure gradient source: uncorrected Ubar = 1.00057, pressure gradient = 0.636691
GAMG:  Solving for p, Initial residual = 0.00301584, Final residual = 0.000263272, No Iterations 9
time step continuity errors : sum local = 3.82689e-05, global = -4.82796e-19, cumulative = 7.8853e-17
Pressure gradient source: uncorrected Ubar = 1.00003, pressure gradient = 0.849756
smoothSolver:  Solving for omega, Initial residual = 5.21227e-05, Final residual = 9.48097e-06, No Iterations 4
smoothSolver:  Solving for k, Initial residual = 0.0075866, Final residual = 0.000592688, No Iterations 6
ExecutionTime = 0.123351 s  ClockTime = 0 s

Time = 40s

smoothSolver:  Solving for Ux, Initial residual = 0.00723569, Final residual = 0.000580018, No Iterations 5
smoothSolver:  Solving for Uy, Initial residual = 0.0182554, Final residual = 0.00136199, No Iterations 6
Pressure gradient source: uncorrected Ubar = 1.00055, pressure gradient = 0.629325
GAMG:  Solving for p, Initial residual = 0.00283464, Final residual = 0.000255908, No Iterations 9
time step continuity errors : sum local = 3.43899e-05, global = -5.25159e-18, cumulative = 7.36014e-17
Pressure gradient source: uncorrected Ubar = 1.00003, pressure gradient = 0.839686
smoothSolver:  Solving for omega, Initial residual = 5.08753e-05, Final residual = 9.25617e-06, No Iterations 4
smoothSolver:  Solving for k, Initial residual = 0.00752746, Final residual = 0.000592918, No Iterations 6
ExecutionTime = 0.126152 s  ClockTime = 0 s

Time = 41s

smoothSolver:  Solving for Ux, Initial residual = 0.00708649, Final residual = 0.000571649, No Iterations 5
smoothSolver:  Solving for Uy, Initial residual = 0.0172941, Final residual = 0.00130239, No Iterations 6
Pressure gradient source: uncorrected Ubar = 1.00053, pressure gradient = 0.623342
GAMG:  Solving for p, Initial residual = 0.0026831, Final residual = 0.000260399, No Iterations 9
time step continuity errors : sum local = 3.19632e-05, global = 2.00221e-17, cumulative = 9.36235e-17
Pressure gradient source: uncorrected Ubar = 1.00002, pressure gradient = 0.830059
smoothSolver:  Solving for omega, Initial residual = 4.96297e-05, Final residual = 9.03011e-06, No Iterations 4
smoothSolver:  Solving for k, Initial residual = 0.00746437, Final residual = 0.000590063, No Iterations 6
ExecutionTime = 0.129062 s  ClockTime = 0 s

Time = 42s

smoothSolver:  Solving for Ux, Initial residual = 0.0069456, Final residual = 0.000563652, No Iterations 5
smoothSolver:  Solving for Uy, Initial residual = 0.0163683, Final residual = 0.001246, No Iterations 6
Pressure gradient source: uncorrected Ubar = 1.00051, pressure gradient = 0.616722
GAMG:  Solving for p, Initial residual = 0.00256615, Final residual = 0.000229681, No Iterations 10
time step continuity errors : sum local = 2.51428e-05, global = -8.1671e-18, cumulative = 8.54564e-17
Pressure gradient source: uncorrected Ubar = 1.00002, pressure gradient = 0.820741
smoothSolver:  Solving for omega, Initial residual = 4.84342e-05, Final residual = 8.79981e-06, No Iterations 4
smoothSolver:  Solving for k, Initial residual = 0.00739422, Final residual = 0.000587128, No Iterations 6
ExecutionTime = 0.131923 s  ClockTime = 0 s

Time = 43s

smoothSolver:  Solving for Ux, Initial residual = 0.00682239, Final residual = 0.000555342, No Iterations 5
smoothSolver:  Solving for Uy, Initial residual = 0.015643, Final residual = 0.00119836, No Iterations 6
Pressure gradient source: uncorrected Ubar = 1.00049, pressure gradient = 0.60914
GAMG:  Solving for p, Initial residual = 0.00255747, Final residual = 0.000222391, No Iterations 10
time step continuity errors : sum local = 2.31353e-05, global = 1.01822e-17, cumulative = 9.56386e-17
Pressure gradient source: uncorrected Ubar = 1.00002, pressure gradient = 0.811574
smoothSolver:  Solving for omega, Initial residual = 4.72109e-05, Final residual = 8.6412e-06, No Iterations 4
smoothSolver:  Solving for k, Initial residual = 0.00733288, Final residual = 0.000582389, No Iterations 6
ExecutionTime = 0.134755 s  ClockTime = 0 s

Time = 44s

smoothSolver:  Solving for Ux, Initial residual = 0.00669806, Final residual = 0.000548153, No Iterations 5
smoothSolver:  Solving for Uy, Initial residual = 0.0151127, Final residual = 0.00116759, No Iterations 6
Pressure gradient source: uncorrected Ubar = 1.00047, pressure gradient = 0.603577
GAMG:  Solving for p, Initial residual = 0.00242136, Final residual = 0.000230196, No Iterations 10
time step continuity errors : sum local = 2.3846e-05, global = -2.26709e-17, cumulative = 7.29678e-17
Pressure gradient source: uncorrected Ubar = 1.00002, pressure gradient = 0.802802
smoothSolver:  Solving for omega, Initial residual = 4.60481e-05, Final residual = 8.3784e-06, No Iterations 4
smoothSolver:  Solving for k, Initial residual = 0.00727038, Final residual = 0.000575653, No Iterations 6
ExecutionTime = 0.137564 s  ClockTime = 0 s

Time = 45s

smoothSolver:  Solving for Ux, Initial residual = 0.00657544, Final residual = 0.000541479, No Iterations 5
smoothSolver:  Solving for Uy, Initial residual = 0.0151243, Final residual = 0.00114991, No Iterations 6
Pressure gradient source: uncorrected Ubar = 1.00046, pressure gradient = 0.59614
GAMG:  Solving for p, Initial residual = 0.00229742, Final residual = 0.000208409, No Iterations 11
time step continuity errors : sum local = 2.24028e-05, global = -4.72392e-18, cumulative = 6.82438e-17
Pressure gradient source: uncorrected Ubar = 1.00002, pressure gradient = 0.794146
smoothSolver:  Solving for omega, Initial residual = 4.48815e-05, Final residual = 8.20526e-06, No Iterations 4
smoothSolver:  Solving for k, Initial residual = 0.00721074, Final residual = 0.000572857, No Iterations 6
ExecutionTime = 0.14044 s  ClockTime = 0 s

Time = 46s

smoothSolver:  Solving for Ux, Initial residual = 0.00646229, Final residual = 0.000534829, No Iterations 5
smoothSolver:  Solving for Uy, Initial residual = 0.0152727, Final residual = 0.00114482, No Iterations 6
Pressure gradient source: uncorrected Ubar = 1.00044, pressure gradient = 0.592518
GAMG:  Solving for p, Initial residual = 0.00228301, Final residual = 0.000210802, No Iterations 12
time step continuity errors : sum local = 2.32918e-05, global = -5.91483e-18, cumulative = 6.2329e-17
Pressure gradient source: uncorrected Ubar = 1.00002, pressure gradient = 0.786071
smoothSolver:  Solving for omega, Initial residual = 4.37736e-05, Final residual = 8.02575e-06, No Iterations 4
smoothSolver:  Solving for k, Initial residual = 0.00715738, Final residual = 0.000572097, No Iterations 6
ExecutionTime = 0.143386 s  ClockTime = 0 s

Time = 47s

smoothSolver:  Solving for Ux, Initial residual = 0.00635991, Final residual = 0.000528293, No Iterations 5
smoothSolver:  Solving for Uy, Initial residual = 0.0154683, Final residual = 0.00114631, No Iterations 6
Pressure gradient source: uncorrected Ubar = 1.00043, pressure gradient = 0.587089
GAMG:  Solving for p, Initial residual = 0.00223118, Final residual = 0.000216019, No Iterations 12
time step continuity errors : sum local = 2.36983e-05, global = 3.93871e-18, cumulative = 6.62677e-17
Pressure gradient source: uncorrected Ubar = 1.00002, pressure gradient = 0.778283
smoothSolver:  Solving for omega, Initial residual = 4.26857e-05, Final residual = 7.79746e-06, No Iterations 4
smoothSolver:  Solving for k, Initial residual = 0.00708135, Final residual = 0.000565766, No Iterations 6
ExecutionTime = 0.146302 s  ClockTime = 0 s

Time = 48s

smoothSolver:  Solving for Ux, Initial residual = 0.00626187, Final residual = 0.00052232, No Iterations 5
smoothSolver:  Solving for Uy, Initial residual = 0.0156473, Final residual = 0.00115719, No Iterations 6
Pressure gradient source: uncorrected Ubar = 1.00041, pressure gradient = 0.580873
GAMG:  Solving for p, Initial residual = 0.0021449, Final residual = 0.000192219, No Iterations 14
time step continuity errors : sum local = 2.17267e-05, global = -4.66883e-18, cumulative = 6.15989e-17
Pressure gradient source: uncorrected Ubar = 1.00002, pressure gradient = 0.770655
smoothSolver:  Solving for omega, Initial residual = 4.16294e-05, Final residual = 7.63644e-06, No Iterations 4
smoothSolver:  Solving for k, Initial residual = 0.0070397, Final residual = 0.00056661, No Iterations 6
ExecutionTime = 0.14932 s  ClockTime = 0 s

Time = 49s

smoothSolver:  Solving for Ux, Initial residual = 0.00615946, Final residual = 0.000516561, No Iterations 5
smoothSolver:  Solving for Uy, Initial residual = 0.0158096, Final residual = 0.0011721, No Iterations 6
Pressure gradient source: uncorrected Ubar = 1.0004, pressure gradient = 0.576081
GAMG:  Solving for p, Initial residual = 0.00211538, Final residual = 0.000198076, No Iterations 14
time step continuity errors : sum local = 2.20788e-05, global = 2.4979e-17, cumulative = 8.65779e-17
Pressure gradient source: uncorrected Ubar = 1.00001, pressure gradient = 0.763356
smoothSolver:  Solving for omega, Initial residual = 4.06209e-05, Final residual = 7.44351e-06, No Iterations 4
smoothSolver:  Solving for k, Initial residual = 0.00698729, Final residual = 0.000563304, No Iterations 6
ExecutionTime = 0.152363 s  ClockTime = 0 s

Time = 50s

smoothSolver:  Solving for Ux, Initial residual = 0.00606264, Final residual = 0.000510972, No Iterations 5
smoothSolver:  Solving for Uy, Initial residual = 0.0159132, Final residual = 0.00118033, No Iterations 6
Pressure gradient source: uncorrected Ubar = 1.00039, pressure gradient = 0.571612
GAMG:  Solving for p, Initial residual = 0.00208609, Final residual = 0.000200561, No Iterations 14
time step continuity errors : sum local = 2.19001e-05, global = 1.58615e-17, cumulative = 1.02439e-16
Pressure gradient source: uncorrected Ubar = 1.00001, pressure gradient = 0.756383
smoothSolver:  Solving for omega, Initial residual = 3.96216e-05, Final residual = 7.29511e-06, No Iterations 4
smoothSolver:  Solving for k, Initial residual = 0.00692721, Final residual = 0.000559494, No Iterations 6
ExecutionTime = 0.155384 s  ClockTime = 0 s

Time = 51s

smoothSolver:  Solving for Ux, Initial residual = 0.00597737, Final residual = 0.000505457, No Iterations 5
smoothSolver:  Solving for Uy, Initial residual = 0.0159732, Final residual = 0.00118628, No Iterations 6
Pressure gradient source: uncorrected Ubar = 1.00038, pressure gradient = 0.566502
GAMG:  Solving for p, Initial residual = 0.00196827, Final residual = 0.00016948, No Iterations 16
time step continuity errors : sum local = 1.85708e-05, global = -2.89692e-19, cumulative = 1.0215e-16
Pressure gradient source: uncorrected Ubar = 1.00001, pressure gradient = 0.74962
smoothSolver:  Solving for omega, Initial residual = 3.86775e-05, Final residual = 7.0848e-06, No Iterations 4
smoothSolver:  Solving for k, Initial residual = 0.00687092, Final residual = 0.000557794, No Iterations 6
ExecutionTime = 0.158613 s  ClockTime = 0 s

Time = 52s

smoothSolver:  Solving for Ux, Initial residual = 0.00589421, Final residual = 0.000500363, No Iterations 5
smoothSolver:  Solving for Uy, Initial residual = 0.0159652, Final residual = 0.00118598, No Iterations 6
Pressure gradient source: uncorrected Ubar = 1.00037, pressure gradient = 0.560229
GAMG:  Solving for p, Initial residual = 0.00198423, Final residual = 0.000170542, No Iterations 16
time step continuity errors : sum local = 1.82403e-05, global = -2.35475e-18, cumulative = 9.9795e-17
Pressure gradient source: uncorrected Ubar = 1.00001, pressure gradient = 0.742908
smoothSolver:  Solving for omega, Initial residual = 3.77389e-05, Final residual = 6.97523e-06, No Iterations 4
smoothSolver:  Solving for k, Initial residual = 0.0068202, Final residual = 0.000554887, No Iterations 6
ExecutionTime = 0.161785 s  ClockTime = 0 s

Time = 53s

smoothSolver:  Solving for Ux, Initial residual = 0.00581024, Final residual = 0.000495467, No Iterations 5
smoothSolver:  Solving for Uy, Initial residual = 0.0160657, Final residual = 0.00119915, No Iterations 6
Pressure gradient source: uncorrected Ubar = 1.00036, pressure gradient = 0.555011
GAMG:  Solving for p, Initial residual = 0.00195399, Final residual = 0.000171541, No Iterations 16
time step continuity errors : sum local = 1.78738e-05, global = 1.86161e-17, cumulative = 1.18411e-16
Pressure gradient source: uncorrected Ubar = 1.00001, pressure gradient = 0.736369
smoothSolver:  Solving for omega, Initial residual = 3.68395e-05, Final residual = 6.76918e-06, No Iterations 4
smoothSolver:  Solving for k, Initial residual = 0.00676782, Final residual = 0.000550928, No Iterations 6
ExecutionTime = 0.164891 s  ClockTime = 0 s

Time = 54s

smoothSolver:  Solving for Ux, Initial residual = 0.00572561, Final residual = 0.000490633, No Iterations 5
smoothSolver:  Solving for Uy, Initial residual = 0.01614, Final residual = 0.00120846, No Iterations 6
Pressure gradient source: uncorrected Ubar = 1.00035, pressure gradient = 0.549612
GAMG:  Solving for p, Initial residual = 0.001847, Final residual = 0.000173376, No Iterations 16
time step continuity errors : sum local = 1.76498e-05, global = -2.83248e-18, cumulative = 1.15579e-16
Pressure gradient source: uncorrected Ubar = 1.00001, pressure gradient = 0.729959
smoothSolver:  Solving for omega, Initial residual = 3.59755e-05, Final residual = 6.64707e-06, No Iterations 4
smoothSolver:  Solving for k, Initial residual = 0.00672359, Final residual = 0.000550182, No Iterations 6
ExecutionTime = 0.168031 s  ClockTime = 0 s

Time = 55s

smoothSolver:  Solving for Ux, Initial residual = 0.00565264, Final residual = 0.000485823, No Iterations 5
smoothSolver:  Solving for Uy, Initial residual = 0.016164, Final residual = 0.00121472, No Iterations 6
Pressure gradient source: uncorrected Ubar = 1.00034, pressure gradient = 0.544281
GAMG:  Solving for p, Initial residual = 0.00180998, Final residual = 0.000177764, No Iterations 16
time step continuity errors : sum local = 1.76548e-05, global = -1.0349e-17, cumulative = 1.0523e-16
Pressure gradient source: uncorrected Ubar = 1.00001, pressure gradient = 0.72368
smoothSolver:  Solving for omega, Initial residual = 3.51267e-05, Final residual = 9.84196e-06, No Iterations 3
smoothSolver:  Solving for k, Initial residual = 0.0066886, Final residual = 0.000548324, No Iterations 6
ExecutionTime = 0.171157 s  ClockTime = 0 s

Time = 56s

smoothSolver:  Solving for Ux, Initial residual = 0.0055882, Final residual = 0.000482171, No Iterations 5
smoothSolver:  Solving for Uy, Initial residual = 0.0160633, Final residual = 0.00121074, No Iterations 6
Pressure gradient source: uncorrected Ubar = 1.00036, pressure gradient = 0.52636
GAMG:  Solving for p, Initial residual = 0.00190666, Final residual = 0.00018133, No Iterations 16
time step continuity errors : sum local = 1.75859e-05, global = 3.95734e-18, cumulative = 1.09187e-16
Pressure gradient source: uncorrected Ubar = 1.00001, pressure gradient = 0.715942
smoothSolver:  Solving for omega, Initial residual = 3.46428e-05, Final residual = 9.70754e-06, No Iterations 3
smoothSolver:  Solving for k, Initial residual = 0.00666823, Final residual = 0.000547857, No Iterations 6
ExecutionTime = 0.174319 s  ClockTime = 0 s

Time = 57s

smoothSolver:  Solving for Ux, Initial residual = 0.00552544, Final residual = 0.000478547, No Iterations 5
smoothSolver:  Solving for Uy, Initial residual = 0.0160894, Final residual = 0.00121702, No Iterations 6
Pressure gradient source: uncorrected Ubar = 1.00035, pressure gradient = 0.518977
GAMG:  Solving for p, Initial residual = 0.00182214, Final residual = 0.00015484, No Iterations 18
time step continuity errors : sum local = 1.49775e-05, global = 6.87113e-18, cumulative = 1.16058e-16
Pressure gradient source: uncorrected Ubar = 1.00001, pressure gradient = 0.708245
smoothSolver:  Solving for omega, Initial residual = 3.41475e-05, Final residual = 9.59666e-06, No Iterations 3
smoothSolver:  Solving for k, Initial residual = 0.00664678, Final residual = 0.000548193, No Iterations 6
ExecutionTime = 0.177493 s  ClockTime = 0 s

Time = 58s

smoothSolver:  Solving for Ux, Initial residual = 0.00545664, Final residual = 0.00047507, No Iterations 5
smoothSolver:  Solving for Uy, Initial residual = 0.0161294, Final residual = 0.00122577, No Iterations 6
Pressure gradient source: uncorrected Ubar = 1.00034, pressure gradient = 0.511435
GAMG:  Solving for p, Initial residual = 0.00179441, Final residual = 0.000156504, No Iterations 18
time step continuity errors : sum local = 1.46954e-05, global = 1.2049e-17, cumulative = 1.28107e-16
Pressure gradient source: uncorrected Ubar = 1.00001, pressure gradient = 0.700562
smoothSolver:  Solving for omega, Initial residual = 3.35953e-05, Final residual = 9.42482e-06, No Iterations 3
smoothSolver:  Solving for k, Initial residual = 0.0066232, Final residual = 0.000546913, No Iterations 6
ExecutionTime = 0.180714 s  ClockTime = 0 s

Time = 59s

smoothSolver:  Solving for Ux, Initial residual = 0.00539907, Final residual = 0.000471637, No Iterations 5
smoothSolver:  Solving for Uy, Initial residual = 0.0161189, Final residual = 0.00122873, No Iterations 6
Pressure gradient source: uncorrected Ubar = 1.00034, pressure gradient = 0.50382
GAMG:  Solving for p, Initial residual = 0.00171817, Final residual = 0.000157848, No Iterations 18
time step continuity errors : sum local = 1.44328e-05, global = -1.38083e-17, cumulative = 1.14299e-16
Pressure gradient source: uncorrected Ubar = 1.00001, pressure gradient = 0.69288
smoothSolver:  Solving for omega, Initial residual = 3.30626e-05, Final residual = 9.29336e-06, No Iterations 3
smoothSolver:  Solving for k, Initial residual = 0.00660198, Final residual = 0.000546188, No Iterations 6
ExecutionTime = 0.183894 s  ClockTime = 0 s

Time = 60s

smoothSolver:  Solving for Ux, Initial residual = 0.00534275, Final residual = 0.0004682, No Iterations 5
smoothSolver:  Solving for Uy, Initial residual = 0.0159938, Final residual = 0.00122319, No Iterations 6
Pressure gradient source: uncorrected Ubar = 1.00033, pressure gradient = 0.495631
GAMG:  Solving for p, Initial residual = 0.00183263, Final residual = 0.000161929, No Iterations 18
time step continuity errors : sum local = 1.44101e-05, global = -1.30875e-17, cumulative = 1.01211e-16
Pressure gradient source: uncorrected Ubar = 1.00001, pressure gradient = 0.685133
smoothSolver:  Solving for omega, Initial residual = 3.25138e-05, Final residual = 9.13251e-06, No Iterations 3
smoothSolver:  Solving for k, Initial residual = 0.00657607, Final residual = 0.000545357, No Iterations 6
ExecutionTime = 0.187137 s  ClockTime = 0 s

Time = 61s

smoothSolver:  Solving for Ux, Initial residual = 0.00528466, Final residual = 0.000465019, No Iterations 5
smoothSolver:  Solving for Uy, Initial residual = 0.0160267, Final residual = 0.00123043, No Iterations 6
Pressure gradient source: uncorrected Ubar = 1.00033, pressure gradient = 0.486965
GAMG:  Solving for p, Initial residual = 0.00178236, Final residual = 0.000164949, No Iterations 18
time step continuity errors : sum local = 1.42885e-05, global = -6.29007e-18, cumulative = 9.49212e-17
Pressure gradient source: uncorrected Ubar = 1.00001, pressure gradient = 0.677271
smoothSolver:  Solving for omega, Initial residual = 3.1976e-05, Final residual = 8.98585e-06, No Iterations 3
smoothSolver:  Solving for k, Initial residual = 0.00655729, Final residual = 0.000545152, No Iterations 6
ExecutionTime = 0.190411 s  ClockTime = 0 s

Time = 62s

smoothSolver:  Solving for Ux, Initial residual = 0.00522327, Final residual = 0.000462022, No Iterations 5
smoothSolver:  Solving for Uy, Initial residual = 0.0160019, Final residual = 0.00123289, No Iterations 6
Pressure gradient source: uncorrected Ubar = 1.00032, pressure gradient = 0.478271
GAMG:  Solving for p, Initial residual = 0.00175822, Final residual = 0.000172255, No Iterations 18
time step continuity errors : sum local = 1.45082e-05, global = 5.2948e-18, cumulative = 1.00216e-16
Pressure gradient source: uncorrected Ubar = 1.00001, pressure gradient = 0.669305
smoothSolver:  Solving for omega, Initial residual = 3.14273e-05, Final residual = 8.8288e-06, No Iterations 3
smoothSolver:  Solving for k, Initial residual = 0.00653578, Final residual = 0.000544553, No Iterations 6
ExecutionTime = 0.193632 s  ClockTime = 0 s

Time = 63s

smoothSolver:  Solving for Ux, Initial residual = 0.00517387, Final residual = 0.000459063, No Iterations 5
smoothSolver:  Solving for Uy, Initial residual = 0.0158966, Final residual = 0.00122785, No Iterations 6
Pressure gradient source: uncorrected Ubar = 1.00032, pressure gradient = 0.46924
GAMG:  Solving for p, Initial residual = 0.0016882, Final residual = 0.00015491, No Iterations 20
time step continuity errors : sum local = 1.28945e-05, global = -2.08463e-17, cumulative = 7.93696e-17
Pressure gradient source: uncorrected Ubar = 1.00001, pressure gradient = 0.661203
smoothSolver:  Solving for omega, Initial residual = 3.09081e-05, Final residual = 8.69868e-06, No Iterations 3
smoothSolver:  Solving for k, Initial residual = 0.00649504, Final residual = 0.000540729, No Iterations 6
ExecutionTime = 0.196912 s  ClockTime = 0 s

Time = 64s

smoothSolver:  Solving for Ux, Initial residual = 0.00512579, Final residual = 0.000455814, No Iterations 5
smoothSolver:  Solving for Uy, Initial residual = 0.0156386, Final residual = 0.00121034, No Iterations 6
Pressure gradient source: uncorrected Ubar = 1.00031, pressure gradient = 0.460089
GAMG:  Solving for p, Initial residual = 0.0018504, Final residual = 0.000175906, No Iterations 18
time step continuity errors : sum local = 1.4001e-05, global = -5.36426e-18, cumulative = 7.40054e-17
Pressure gradient source: uncorrected Ubar = 1.00001, pressure gradient = 0.652968
smoothSolver:  Solving for omega, Initial residual = 3.03789e-05, Final residual = 8.55612e-06, No Iterations 3
smoothSolver:  Solving for k, Initial residual = 0.00648141, Final residual = 0.000542037, No Iterations 6
ExecutionTime = 0.200145 s  ClockTime = 0 s

Time = 65s

smoothSolver:  Solving for Ux, Initial residual = 0.00507311, Final residual = 0.00045316, No Iterations 5
smoothSolver:  Solving for Uy, Initial residual = 0.015525, Final residual = 0.00120575, No Iterations 6
Pressure gradient source: uncorrected Ubar = 1.00031, pressure gradient = 0.450236
GAMG:  Solving for p, Initial residual = 0.00173084, Final residual = 0.000156448, No Iterations 20
time step continuity errors : sum local = 1.23076e-05, global = -1.50602e-18, cumulative = 7.24994e-17
Pressure gradient source: uncorrected Ubar = 1.00001, pressure gradient = 0.644526
smoothSolver:  Solving for omega, Initial residual = 2.98782e-05, Final residual = 8.42058e-06, No Iterations 3
smoothSolver:  Solving for k, Initial residual = 0.0064575, Final residual = 0.000539692, No Iterations 6
ExecutionTime = 0.203446 s  ClockTime = 0 s

Time = 66s

smoothSolver:  Solving for Ux, Initial residual = 0.00501899, Final residual = 0.000450561, No Iterations 5
smoothSolver:  Solving for Uy, Initial residual = 0.0154134, Final residual = 0.00120034, No Iterations 6
Pressure gradient source: uncorrected Ubar = 1.00031, pressure gradient = 0.440753
GAMG:  Solving for p, Initial residual = 0.00164924, Final residual = 0.000154715, No Iterations 20
time step continuity errors : sum local = 1.18327e-05, global = -2.30266e-18, cumulative = 7.01967e-17
Pressure gradient source: uncorrected Ubar = 1.00001, pressure gradient = 0.63595
smoothSolver:  Solving for omega, Initial residual = 2.93732e-05, Final residual = 8.2921e-06, No Iterations 3
smoothSolver:  Solving for k, Initial residual = 0.00643367, Final residual = 0.00053902, No Iterations 6
ExecutionTime = 0.206741 s  ClockTime = 0 s

Time = 67s

smoothSolver:  Solving for Ux, Initial residual = 0.00497516, Final residual = 0.000447982, No Iterations 5
smoothSolver:  Solving for Uy, Initial residual = 0.0152115, Final residual = 0.00118765, No Iterations 6
Pressure gradient source: uncorrected Ubar = 1.00031, pressure gradient = 0.430566
GAMG:  Solving for p, Initial residual = 0.00162896, Final residual = 0.000150151, No Iterations 20
time step continuity errors : sum local = 1.1167e-05, global = 1.76056e-18, cumulative = 7.19573e-17
Pressure gradient source: uncorrected Ubar = 1.00001, pressure gradient = 0.627167
smoothSolver:  Solving for omega, Initial residual = 2.89073e-05, Final residual = 8.17387e-06, No Iterations 3
smoothSolver:  Solving for k, Initial residual = 0.00640595, Final residual = 0.000537355, No Iterations 6
ExecutionTime = 0.210044 s  ClockTime = 0 s

Time = 68s

smoothSolver:  Solving for Ux, Initial residual = 0.00493245, Final residual = 0.000444995, No Iterations 5
smoothSolver:  Solving for Uy, Initial residual = 0.0149847, Final residual = 0.00117317, No Iterations 6
Pressure gradient source: uncorrected Ubar = 1.0003, pressure gradient = 0.419782
GAMG:  Solving for p, Initial residual = 0.00168162, Final residual = 0.000167809, No Iterations 18
time step continuity errors : sum local = 1.19685e-05, global = -9.75358e-19, cumulative = 7.09819e-17
Pressure gradient source: uncorrected Ubar = 1.00001, pressure gradient = 0.618131
smoothSolver:  Solving for omega, Initial residual = 2.84583e-05, Final residual = 8.06747e-06, No Iterations 3
smoothSolver:  Solving for k, Initial residual = 0.00638996, Final residual = 0.0005373, No Iterations 6
ExecutionTime = 0.213235 s  ClockTime = 0 s

Time = 69s

smoothSolver:  Solving for Ux, Initial residual = 0.00488488, Final residual = 0.000442532, No Iterations 5
smoothSolver:  Solving for Uy, Initial residual = 0.0149175, Final residual = 0.00117216, No Iterations 6
Pressure gradient source: uncorrected Ubar = 1.0003, pressure gradient = 0.408961
GAMG:  Solving for p, Initial residual = 0.00159827, Final residual = 0.000148555, No Iterations 20
time step continuity errors : sum local = 1.0488e-05, global = -3.72652e-18, cumulative = 6.72554e-17
Pressure gradient source: uncorrected Ubar = 1.00001, pressure gradient = 0.608861
smoothSolver:  Solving for omega, Initial residual = 2.80785e-05, Final residual = 7.96283e-06, No Iterations 3
smoothSolver:  Solving for k, Initial residual = 0.00636058, Final residual = 0.000534592, No Iterations 6
ExecutionTime = 0.216504 s  ClockTime = 0 s

Time = 70s

smoothSolver:  Solving for Ux, Initial residual = 0.00483815, Final residual = 0.00044039, No Iterations 5
smoothSolver:  Solving for Uy, Initial residual = 0.0148089, Final residual = 0.00116672, No Iterations 6
Pressure gradient source: uncorrected Ubar = 1.0003, pressure gradient = 0.39836
GAMG:  Solving for p, Initial residual = 0.0015386, Final residual = 0.000145008, No Iterations 20
time step continuity errors : sum local = 9.95971e-06, global = 1.87948e-17, cumulative = 8.60502e-17
Pressure gradient source: uncorrected Ubar = 1.00001, pressure gradient = 0.599414
smoothSolver:  Solving for omega, Initial residual = 2.77351e-05, Final residual = 7.89003e-06, No Iterations 3
smoothSolver:  Solving for k, Initial residual = 0.00633666, Final residual = 0.000534192, No Iterations 6
ExecutionTime = 0.219842 s  ClockTime = 0 s

Time = 71s

smoothSolver:  Solving for Ux, Initial residual = 0.00479906, Final residual = 0.00043819, No Iterations 5
smoothSolver:  Solving for Uy, Initial residual = 0.0145311, Final residual = 0.0011473, No Iterations 6
Pressure gradient source: uncorrected Ubar = 1.0003, pressure gradient = 0.386923
GAMG:  Solving for p, Initial residual = 0.00167882, Final residual = 0.000164905, No Iterations 18
time step continuity errors : sum local = 1.08861e-05, global = 9.99329e-18, cumulative = 9.60435e-17
Pressure gradient source: uncorrected Ubar = 1.00001, pressure gradient = 0.589705
smoothSolver:  Solving for omega, Initial residual = 2.74189e-05, Final residual = 7.79697e-06, No Iterations 3
smoothSolver:  Solving for k, Initial residual = 0.00630991, Final residual = 0.000531667, No Iterations 6
ExecutionTime = 0.223037 s  ClockTime = 0 s

Time = 72s

smoothSolver:  Solving for Ux, Initial residual = 0.00476074, Final residual = 0.000435677, No Iterations 5
smoothSolver:  Solving for Uy, Initial residual = 0.014464, Final residual = 0.00114644, No Iterations 6
Pressure gradient source: uncorrected Ubar = 1.00029, pressure gradient = 0.375672
GAMG:  Solving for p, Initial residual = 0.00154853, Final residual = 0.000142916, No Iterations 20
time step continuity errors : sum local = 9.31454e-06, global = -3.41058e-18, cumulative = 9.26329e-17
Pressure gradient source: uncorrected Ubar = 1.00001, pressure gradient = 0.57979
smoothSolver:  Solving for omega, Initial residual = 2.71092e-05, Final residual = 7.72724e-06, No Iterations 3
smoothSolver:  Solving for k, Initial residual = 0.00629118, Final residual = 0.000531302, No Iterations 6
ExecutionTime = 0.226312 s  ClockTime = 0 s

Time = 73s

smoothSolver:  Solving for Ux, Initial residual = 0.00471858, Final residual = 0.000433301, No Iterations 5
smoothSolver:  Solving for Uy, Initial residual = 0.0143438, Final residual = 0.00114009, No Iterations 6
Pressure gradient source: uncorrected Ubar = 1.00029, pressure gradient = 0.363831
GAMG:  Solving for p, Initial residual = 0.00147723, Final residual = 0.000143251, No Iterations 20
time step continuity errors : sum local = 9.0908e-06, global = -2.86848e-18, cumulative = 8.97644e-17
Pressure gradient source: uncorrected Ubar = 1.00001, pressure gradient = 0.569616
smoothSolver:  Solving for omega, Initial residual = 2.67575e-05, Final residual = 7.62165e-06, No Iterations 3
smoothSolver:  Solving for k, Initial residual = 0.00626155, Final residual = 0.000529118, No Iterations 6
ExecutionTime = 0.229623 s  ClockTime = 0 s

Time = 74s

smoothSolver:  Solving for Ux, Initial residual = 0.00467738, Final residual = 0.000431379, No Iterations 5
smoothSolver:  Solving for Uy, Initial residual = 0.0141988, Final residual = 0.00113093, No Iterations 6
Pressure gradient source: uncorrected Ubar = 1.00029, pressure gradient = 0.352435
GAMG:  Solving for p, Initial residual = 0.00143155, Final residual = 0.000142218, No Iterations 20
time step continuity errors : sum local = 8.7917e-06, global = -1.1933e-17, cumulative = 7.78314e-17
Pressure gradient source: uncorrected Ubar = 1.00001, pressure gradient = 0.559269
smoothSolver:  Solving for omega, Initial residual = 2.64212e-05, Final residual = 7.54905e-06, No Iterations 3
smoothSolver:  Solving for k, Initial residual = 0.00623365, Final residual = 0.000527406, No Iterations 6
ExecutionTime = 0.232886 s  ClockTime = 0 s

Time = 75s

smoothSolver:  Solving for Ux, Initial residual = 0.0046408, Final residual = 0.000429498, No Iterations 5
smoothSolver:  Solving for Uy, Initial residual = 0.0139065, Final residual = 0.00110933, No Iterations 6
Pressure gradient source: uncorrected Ubar = 1.00029, pressure gradient = 0.340959
GAMG:  Solving for p, Initial residual = 0.00155154, Final residual = 0.000137369, No Iterations 20
time step continuity errors : sum local = 8.2621e-06, global = -4.88526e-18, cumulative = 7.29462e-17
Pressure gradient source: uncorrected Ubar = 1.00001, pressure gradient = 0.548761
smoothSolver:  Solving for omega, Initial residual = 2.60603e-05, Final residual = 7.43879e-06, No Iterations 3
smoothSolver:  Solving for k, Initial residual = 0.00621149, Final residual = 0.000525896, No Iterations 6
ExecutionTime = 0.236177 s  ClockTime = 0 s

Time = 76s

smoothSolver:  Solving for Ux, Initial residual = 0.00460693, Final residual = 0.000427421, No Iterations 5
smoothSolver:  Solving for Uy, Initial residual = 0.0138153, Final residual = 0.00110603, No Iterations 6
Pressure gradient source: uncorrected Ubar = 1.00028, pressure gradient = 0.328727
GAMG:  Solving for p, Initial residual = 0.00141733, Final residual = 0.00013423, No Iterations 20
time step continuity errors : sum local = 7.84949e-06, global = 1.5319e-17, cumulative = 8.82652e-17
Pressure gradient source: uncorrected Ubar = 1.00001, pressure gradient = 0.538014
smoothSolver:  Solving for omega, Initial residual = 2.57086e-05, Final residual = 7.35526e-06, No Iterations 3
smoothSolver:  Solving for k, Initial residual = 0.00618705, Final residual = 0.000524851, No Iterations 6
ExecutionTime = 0.239503 s  ClockTime = 0 s

Time = 77s

smoothSolver:  Solving for Ux, Initial residual = 0.00457055, Final residual = 0.000425553, No Iterations 5
smoothSolver:  Solving for Uy, Initial residual = 0.0137323, Final residual = 0.00110135, No Iterations 6
Pressure gradient source: uncorrected Ubar = 1.00028, pressure gradient = 0.316466
GAMG:  Solving for p, Initial residual = 0.00137837, Final residual = 0.000135153, No Iterations 20
time step continuity errors : sum local = 7.72128e-06, global = 4.21865e-18, cumulative = 9.24838e-17
Pressure gradient source: uncorrected Ubar = 1.00001, pressure gradient = 0.527051
smoothSolver:  Solving for omega, Initial residual = 2.53533e-05, Final residual = 7.24428e-06, No Iterations 3
smoothSolver:  Solving for k, Initial residual = 0.00615203, Final residual = 0.000521838, No Iterations 6
ExecutionTime = 0.242777 s  ClockTime = 0 s

Time = 78s

smoothSolver:  Solving for Ux, Initial residual = 0.00453559, Final residual = 0.000423772, No Iterations 5
smoothSolver:  Solving for Uy, Initial residual = 0.0135374, Final residual = 0.00108778, No Iterations 6
Pressure gradient source: uncorrected Ubar = 1.00028, pressure gradient = 0.305707
GAMG:  Solving for p, Initial residual = 0.0013409, Final residual = 0.000126942, No Iterations 20
time step continuity errors : sum local = 7.04621e-06, global = 1.76183e-19, cumulative = 9.266e-17
Pressure gradient source: uncorrected Ubar = 1.00001, pressure gradient = 0.516088
smoothSolver:  Solving for omega, Initial residual = 2.50048e-05, Final residual = 7.15565e-06, No Iterations 3
smoothSolver:  Solving for k, Initial residual = 0.00613015, Final residual = 0.000521019, No Iterations 6
ExecutionTime = 0.246039 s  ClockTime = 0 s

Time = 79s

smoothSolver:  Solving for Ux, Initial residual = 0.00450112, Final residual = 0.000422031, No Iterations 5
smoothSolver:  Solving for Uy, Initial residual = 0.0132322, Final residual = 0.00106543, No Iterations 6
Pressure gradient source: uncorrected Ubar = 1.00028, pressure gradient = 0.29342
GAMG:  Solving for p, Initial residual = 0.00148075, Final residual = 0.000145902, No Iterations 18
time step continuity errors : sum local = 7.79748e-06, global = 4.08355e-18, cumulative = 9.67436e-17
Pressure gradient source: uncorrected Ubar = 1.00001, pressure gradient = 0.504929
smoothSolver:  Solving for omega, Initial residual = 2.46464e-05, Final residual = 7.04586e-06, No Iterations 3
smoothSolver:  Solving for k, Initial residual = 0.00610241, Final residual = 0.000518823, No Iterations 6
ExecutionTime = 0.249259 s  ClockTime = 0 s

Time = 80s

smoothSolver:  Solving for Ux, Initial residual = 0.00447181, Final residual = 0.000420405, No Iterations 5
smoothSolver:  Solving for Uy, Initial residual = 0.0131686, Final residual = 0.00106357, No Iterations 6
Pressure gradient source: uncorrected Ubar = 1.00027, pressure gradient = 0.281092
GAMG:  Solving for p, Initial residual = 0.00135698, Final residual = 0.0001288, No Iterations 20
time step continuity errors : sum local = 6.81665e-06, global = 9.07934e-18, cumulative = 1.05823e-16
Pressure gradient source: uncorrected Ubar = 1.00001, pressure gradient = 0.493591
smoothSolver:  Solving for omega, Initial residual = 2.43136e-05, Final residual = 6.96169e-06, No Iterations 3
smoothSolver:  Solving for k, Initial residual = 0.00607496, Final residual = 0.000517547, No Iterations 6
ExecutionTime = 0.252526 s  ClockTime = 0 s

Time = 81s

smoothSolver:  Solving for Ux, Initial residual = 0.00444048, Final residual = 0.000418905, No Iterations 5
smoothSolver:  Solving for Uy, Initial residual = 0.0130836, Final residual = 0.00105819, No Iterations 6
Pressure gradient source: uncorrected Ubar = 1.00027, pressure gradient = 0.269069
GAMG:  Solving for p, Initial residual = 0.0013239, Final residual = 0.000128086, No Iterations 20
time step continuity errors : sum local = 6.61679e-06, global = 1.00026e-17, cumulative = 1.15826e-16
Pressure gradient source: uncorrected Ubar = 1.00001, pressure gradient = 0.482134
smoothSolver:  Solving for omega, Initial residual = 2.39592e-05, Final residual = 6.84906e-06, No Iterations 3
smoothSolver:  Solving for k, Initial residual = 0.00604168, Final residual = 0.000515108, No Iterations 6
ExecutionTime = 0.255789 s  ClockTime = 0 s

Time = 82s

smoothSolver:  Solving for Ux, Initial residual = 0.0044105, Final residual = 0.000417497, No Iterations 5
smoothSolver:  Solving for Uy, Initial residual = 0.0129092, Final residual = 0.00104618, No Iterations 6
Pressure gradient source: uncorrected Ubar = 1.00027, pressure gradient = 0.258149
GAMG:  Solving for p, Initial residual = 0.00124047, Final residual = 0.000119477, No Iterations 20
time step continuity errors : sum local = 5.99799e-06, global = 7.90239e-18, cumulative = 1.23728e-16
Pressure gradient source: uncorrected Ubar = 1.00001, pressure gradient = 0.470713
smoothSolver:  Solving for omega, Initial residual = 2.36308e-05, Final residual = 6.76387e-06, No Iterations 3
smoothSolver:  Solving for k, Initial residual = 0.00601902, Final residual = 0.00051397, No Iterations 6
ExecutionTime = 0.2591 s  ClockTime = 0 s

Time = 83s

smoothSolver:  Solving for Ux, Initial residual = 0.00437711, Final residual = 0.000415977, No Iterations 5
smoothSolver:  Solving for Uy, Initial residual = 0.0126515, Final residual = 0.00102644, No Iterations 6
Pressure gradient source: uncorrected Ubar = 1.00026, pressure gradient = 0.246
GAMG:  Solving for p, Initial residual = 0.00143138, Final residual = 0.000131611, No Iterations 18
time step continuity errors : sum local = 6.3621e-06, global = 4.41304e-18, cumulative = 1.28141e-16
Pressure gradient source: uncorrected Ubar = 1.00001, pressure gradient = 0.459163
smoothSolver:  Solving for omega, Initial residual = 2.32956e-05, Final residual = 6.65347e-06, No Iterations 3
smoothSolver:  Solving for k, Initial residual = 0.00598609, Final residual = 0.000511406, No Iterations 6
ExecutionTime = 0.262329 s  ClockTime = 0 s

Time = 84s

smoothSolver:  Solving for Ux, Initial residual = 0.00435204, Final residual = 0.000414361, No Iterations 5
smoothSolver:  Solving for Uy, Initial residual = 0.0125597, Final residual = 0.00102277, No Iterations 6
Pressure gradient source: uncorrected Ubar = 1.00026, pressure gradient = 0.234729
GAMG:  Solving for p, Initial residual = 0.00128498, Final residual = 0.000114576, No Iterations 20
time step continuity errors : sum local = 5.47895e-06, global = 1.83063e-17, cumulative = 1.46447e-16
Pressure gradient source: uncorrected Ubar = 1.00001, pressure gradient = 0.447613
smoothSolver:  Solving for omega, Initial residual = 2.29878e-05, Final residual = 9.94223e-06, No Iterations 2
smoothSolver:  Solving for k, Initial residual = 0.0059727, Final residual = 0.000510553, No Iterations 6
ExecutionTime = 0.265606 s  ClockTime = 0 s

Time = 85s

smoothSolver:  Solving for Ux, Initial residual = 0.0043328, Final residual = 0.000413709, No Iterations 5
smoothSolver:  Solving for Uy, Initial residual = 0.0125075, Final residual = 0.0010201, No Iterations 6
Pressure gradient source: uncorrected Ubar = 1.00027, pressure gradient = 0.21103
GAMG:  Solving for p, Initial residual = 0.00125924, Final residual = 0.000114419, No Iterations 20
time step continuity errors : sum local = 5.35127e-06, global = 6.30383e-18, cumulative = 1.52751e-16
Pressure gradient source: uncorrected Ubar = 1.00002, pressure gradient = 0.434438
smoothSolver:  Solving for omega, Initial residual = 2.29273e-05, Final residual = 9.89045e-06, No Iterations 2
smoothSolver:  Solving for k, Initial residual = 0.00597444, Final residual = 0.000511402, No Iterations 6
ExecutionTime = 0.268908 s  ClockTime = 0 s

Time = 86s

smoothSolver:  Solving for Ux, Initial residual = 0.00431282, Final residual = 0.000413254, No Iterations 5
smoothSolver:  Solving for Uy, Initial residual = 0.0123788, Final residual = 0.00101059, No Iterations 6
Pressure gradient source: uncorrected Ubar = 1.00027, pressure gradient = 0.198806
GAMG:  Solving for p, Initial residual = 0.00119885, Final residual = 0.000113989, No Iterations 20
time step continuity errors : sum local = 5.19952e-06, global = 8.44619e-18, cumulative = 1.61197e-16
Pressure gradient source: uncorrected Ubar = 1.00001, pressure gradient = 0.421327
smoothSolver:  Solving for omega, Initial residual = 2.28474e-05, Final residual = 9.86452e-06, No Iterations 2
smoothSolver:  Solving for k, Initial residual = 0.00597601, Final residual = 0.000511747, No Iterations 6
ExecutionTime = 0.272288 s  ClockTime = 0 s

Time = 87s

smoothSolver:  Solving for Ux, Initial residual = 0.00428664, Final residual = 0.000412471, No Iterations 5
smoothSolver:  Solving for Uy, Initial residual = 0.012145, Final residual = 0.000992169, No Iterations 6
Pressure gradient source: uncorrected Ubar = 1.00026, pressure gradient = 0.186135
GAMG:  Solving for p, Initial residual = 0.00139274, Final residual = 0.000123841, No Iterations 18
time step continuity errors : sum local = 5.43305e-06, global = -3.69709e-18, cumulative = 1.575e-16
Pressure gradient source: uncorrected Ubar = 1.00001, pressure gradient = 0.408215
smoothSolver:  Solving for omega, Initial residual = 2.27465e-05, Final residual = 9.80456e-06, No Iterations 2
smoothSolver:  Solving for k, Initial residual = 0.00597411, Final residual = 0.000512402, No Iterations 6
ExecutionTime = 0.275467 s  ClockTime = 0 s

Time = 88s

smoothSolver:  Solving for Ux, Initial residual = 0.00426936, Final residual = 0.000411787, No Iterations 5
smoothSolver:  Solving for Uy, Initial residual = 0.012064, Final residual = 0.000988442, No Iterations 6
Pressure gradient source: uncorrected Ubar = 1.00026, pressure gradient = 0.173305
GAMG:  Solving for p, Initial residual = 0.00128045, Final residual = 0.00012466, No Iterations 18
time step continuity errors : sum local = 5.3456e-06, global = 5.88688e-20, cumulative = 1.57559e-16
Pressure gradient source: uncorrected Ubar = 1.00001, pressure gradient = 0.395078
smoothSolver:  Solving for omega, Initial residual = 2.2643e-05, Final residual = 9.76574e-06, No Iterations 2
smoothSolver:  Solving for k, Initial residual = 0.00596645, Final residual = 0.000511698, No Iterations 6
ExecutionTime = 0.278747 s  ClockTime = 0 s

Time = 89s

smoothSolver:  Solving for Ux, Initial residual = 0.00425163, Final residual = 0.000411249, No Iterations 5
smoothSolver:  Solving for Uy, Initial residual = 0.0119536, Final residual = 0.000980769, No Iterations 6
Pressure gradient source: uncorrected Ubar = 1.00026, pressure gradient = 0.160731
GAMG:  Solving for p, Initial residual = 0.00122221, Final residual = 0.000110148, No Iterations 20
[...]
smoothSolver:  Solving for k, Initial residual = 1.03962e-05, Final residual = 6.56975e-06, No Iterations 1
ExecutionTime = 9.74365 s  ClockTime = 9 s

Time = 3658s

smoothSolver:  Solving for Ux, Initial residual = 2.84127e-06, Final residual = 2.84127e-06, No Iterations 0
smoothSolver:  Solving for Uy, Initial residual = 0.00022237, Final residual = 1.57002e-05, No Iterations 4
Pressure gradient source: uncorrected Ubar = 1, pressure gradient = 0.00720046
GAMG:  Solving for p, Initial residual = 0.00010071, Final residual = 8.90632e-06, No Iterations 3
time step continuity errors : sum local = 2.57386e-11, global = -6.56221e-19, cumulative = -6.15417e-17
Pressure gradient source: uncorrected Ubar = 1, pressure gradient = 0.00720044
smoothSolver:  Solving for omega, Initial residual = 4.38896e-06, Final residual = 4.38896e-06, No Iterations 0
smoothSolver:  Solving for k, Initial residual = 1.0368e-05, Final residual = 6.53639e-06, No Iterations 1
ExecutionTime = 9.746 s  ClockTime = 9 s

Time = 3659s

smoothSolver:  Solving for Ux, Initial residual = 2.84548e-06, Final residual = 2.84548e-06, No Iterations 0
smoothSolver:  Solving for Uy, Initial residual = 0.000243913, Final residual = 1.76397e-05, No Iterations 4
Pressure gradient source: uncorrected Ubar = 1, pressure gradient = 0.00720044
GAMG:  Solving for p, Initial residual = 0.000108735, Final residual = 9.36388e-06, No Iterations 4
time step continuity errors : sum local = 2.72689e-11, global = -3.18728e-18, cumulative = -6.4729e-17
Pressure gradient source: uncorrected Ubar = 1, pressure gradient = 0.00720042
smoothSolver:  Solving for omega, Initial residual = 4.38896e-06, Final residual = 4.38896e-06, No Iterations 0
smoothSolver:  Solving for k, Initial residual = 1.0354e-05, Final residual = 6.55034e-06, No Iterations 1
ExecutionTime = 9.74839 s  ClockTime = 9 s

Time = 3660s

smoothSolver:  Solving for Ux, Initial residual = 2.84964e-06, Final residual = 2.84964e-06, No Iterations 0
smoothSolver:  Solving for Uy, Initial residual = 0.000233369, Final residual = 1.7167e-05, No Iterations 4
Pressure gradient source: uncorrected Ubar = 1, pressure gradient = 0.00720042
GAMG:  Solving for p, Initial residual = 0.000105165, Final residual = 4.42403e-06, No Iterations 4
time step continuity errors : sum local = 1.37457e-11, global = -6.05522e-19, cumulative = -6.53345e-17
Pressure gradient source: uncorrected Ubar = 1, pressure gradient = 0.00720039
smoothSolver:  Solving for omega, Initial residual = 4.38896e-06, Final residual = 4.38896e-06, No Iterations 0
smoothSolver:  Solving for k, Initial residual = 1.03259e-05, Final residual = 6.51268e-06, No Iterations 1
ExecutionTime = 9.75078 s  ClockTime = 9 s

Time = 3661s

smoothSolver:  Solving for Ux, Initial residual = 2.85384e-06, Final residual = 2.85384e-06, No Iterations 0
smoothSolver:  Solving for Uy, Initial residual = 0.000234574, Final residual = 1.50817e-05, No Iterations 4
Pressure gradient source: uncorrected Ubar = 1, pressure gradient = 0.00720039
GAMG:  Solving for p, Initial residual = 0.0001006, Final residual = 8.91513e-06, No Iterations 3
time step continuity errors : sum local = 2.58469e-11, global = -5.79789e-19, cumulative = -6.59143e-17
Pressure gradient source: uncorrected Ubar = 1, pressure gradient = 0.00720037
smoothSolver:  Solving for omega, Initial residual = 4.38895e-06, Final residual = 4.38895e-06, No Iterations 0
smoothSolver:  Solving for k, Initial residual = 1.03093e-05, Final residual = 6.51516e-06, No Iterations 1
ExecutionTime = 9.75313 s  ClockTime = 9 s

Time = 3662s

smoothSolver:  Solving for Ux, Initial residual = 2.85793e-06, Final residual = 2.85793e-06, No Iterations 0
smoothSolver:  Solving for Uy, Initial residual = 0.000208305, Final residual = 1.48544e-05, No Iterations 4
Pressure gradient source: uncorrected Ubar = 1, pressure gradient = 0.00720037
GAMG:  Solving for p, Initial residual = 9.65107e-05, Final residual = 7.74629e-06, No Iterations 4
time step continuity errors : sum local = 2.2418e-11, global = -1.26907e-19, cumulative = -6.60412e-17
Pressure gradient source: uncorrected Ubar = 1, pressure gradient = 0.00720035
smoothSolver:  Solving for omega, Initial residual = 4.38895e-06, Final residual = 4.38895e-06, No Iterations 0
smoothSolver:  Solving for k, Initial residual = 1.02835e-05, Final residual = 6.49272e-06, No Iterations 1
ExecutionTime = 9.75556 s  ClockTime = 9 s

Time = 3663s

smoothSolver:  Solving for Ux, Initial residual = 2.86205e-06, Final residual = 2.86205e-06, No Iterations 0
smoothSolver:  Solving for Uy, Initial residual = 0.000241041, Final residual = 1.82549e-05, No Iterations 4
Pressure gradient source: uncorrected Ubar = 1, pressure gradient = 0.00720035
GAMG:  Solving for p, Initial residual = 0.000106695, Final residual = 9.38356e-06, No Iterations 4
time step continuity errors : sum local = 2.71669e-11, global = -3.9186e-18, cumulative = -6.99598e-17
Pressure gradient source: uncorrected Ubar = 1, pressure gradient = 0.00720033
smoothSolver:  Solving for omega, Initial residual = 4.38895e-06, Final residual = 4.38895e-06, No Iterations 0
smoothSolver:  Solving for k, Initial residual = 1.02646e-05, Final residual = 6.48337e-06, No Iterations 1
ExecutionTime = 9.75797 s  ClockTime = 9 s

Time = 3664s

smoothSolver:  Solving for Ux, Initial residual = 2.86614e-06, Final residual = 2.86614e-06, No Iterations 0
smoothSolver:  Solving for Uy, Initial residual = 0.000238217, Final residual = 1.55985e-05, No Iterations 4
Pressure gradient source: uncorrected Ubar = 1, pressure gradient = 0.00720033
GAMG:  Solving for p, Initial residual = 0.000116981, Final residual = 1.11344e-05, No Iterations 3
time step continuity errors : sum local = 3.21982e-11, global = 7.10685e-19, cumulative = -6.92491e-17
Pressure gradient source: uncorrected Ubar = 1, pressure gradient = 0.0072003
smoothSolver:  Solving for omega, Initial residual = 4.38894e-06, Final residual = 4.38894e-06, No Iterations 0
smoothSolver:  Solving for k, Initial residual = 1.02395e-05, Final residual = 6.46098e-06, No Iterations 1
ExecutionTime = 9.76032 s  ClockTime = 9 s

Time = 3665s

smoothSolver:  Solving for Ux, Initial residual = 2.87025e-06, Final residual = 2.87025e-06, No Iterations 0
smoothSolver:  Solving for Uy, Initial residual = 0.000242158, Final residual = 1.66978e-05, No Iterations 4
Pressure gradient source: uncorrected Ubar = 1, pressure gradient = 0.0072003
GAMG:  Solving for p, Initial residual = 0.000122498, Final residual = 1.0177e-05, No Iterations 3
time step continuity errors : sum local = 2.98172e-11, global = 1.1691e-18, cumulative = -6.808e-17
Pressure gradient source: uncorrected Ubar = 1, pressure gradient = 0.00720028
smoothSolver:  Solving for omega, Initial residual = 4.38894e-06, Final residual = 4.38894e-06, No Iterations 0
smoothSolver:  Solving for k, Initial residual = 1.02224e-05, Final residual = 6.4658e-06, No Iterations 1
ExecutionTime = 9.76268 s  ClockTime = 9 s

Time = 3666s

smoothSolver:  Solving for Ux, Initial residual = 2.87426e-06, Final residual = 2.87426e-06, No Iterations 0
smoothSolver:  Solving for Uy, Initial residual = 0.000232419, Final residual = 1.80698e-05, No Iterations 4
Pressure gradient source: uncorrected Ubar = 1, pressure gradient = 0.00720028
GAMG:  Solving for p, Initial residual = 0.000100315, Final residual = 3.95766e-06, No Iterations 4
time step continuity errors : sum local = 1.26394e-11, global = -7.2125e-19, cumulative = -6.88013e-17
Pressure gradient source: uncorrected Ubar = 1, pressure gradient = 0.00720026
smoothSolver:  Solving for omega, Initial residual = 4.38893e-06, Final residual = 4.38893e-06, No Iterations 0
smoothSolver:  Solving for k, Initial residual = 1.01919e-05, Final residual = 6.42092e-06, No Iterations 1
ExecutionTime = 9.76507 s  ClockTime = 9 s

Time = 3667s

smoothSolver:  Solving for Ux, Initial residual = 2.87831e-06, Final residual = 2.87831e-06, No Iterations 0
smoothSolver:  Solving for Uy, Initial residual = 0.000231946, Final residual = 1.62009e-05, No Iterations 4
Pressure gradient source: uncorrected Ubar = 1, pressure gradient = 0.00720026
GAMG:  Solving for p, Initial residual = 0.000104389, Final residual = 9.59744e-06, No Iterations 3
time step continuity errors : sum local = 2.77186e-11, global = -1.20337e-18, cumulative = -7.00046e-17
Pressure gradient source: uncorrected Ubar = 1, pressure gradient = 0.00720024
smoothSolver:  Solving for omega, Initial residual = 4.38893e-06, Final residual = 4.38893e-06, No Iterations 0
smoothSolver:  Solving for k, Initial residual = 1.01789e-05, Final residual = 6.43617e-06, No Iterations 1
ExecutionTime = 9.76742 s  ClockTime = 9 s

Time = 3668s

smoothSolver:  Solving for Ux, Initial residual = 2.88231e-06, Final residual = 2.88231e-06, No Iterations 0
smoothSolver:  Solving for Uy, Initial residual = 0.000225429, Final residual = 1.72728e-05, No Iterations 4
Pressure gradient source: uncorrected Ubar = 1, pressure gradient = 0.00720024
GAMG:  Solving for p, Initial residual = 0.000105543, Final residual = 5.39244e-06, No Iterations 4
time step continuity errors : sum local = 1.62745e-11, global = 2.03764e-18, cumulative = -6.7967e-17
Pressure gradient source: uncorrected Ubar = 1, pressure gradient = 0.00720021
smoothSolver:  Solving for omega, Initial residual = 4.38893e-06, Final residual = 4.38893e-06, No Iterations 0
smoothSolver:  Solving for k, Initial residual = 1.01538e-05, Final residual = 6.41444e-06, No Iterations 1
ExecutionTime = 9.76981 s  ClockTime = 9 s

Time = 3669s

smoothSolver:  Solving for Ux, Initial residual = 2.88635e-06, Final residual = 2.88635e-06, No Iterations 0
smoothSolver:  Solving for Uy, Initial residual = 0.000245834, Final residual = 1.56072e-05, No Iterations 4
Pressure gradient source: uncorrected Ubar = 1, pressure gradient = 0.00720021
GAMG:  Solving for p, Initial residual = 0.000120096, Final residual = 1.18223e-05, No Iterations 3
time step continuity errors : sum local = 3.38379e-11, global = 1.68921e-18, cumulative = -6.62778e-17
Pressure gradient source: uncorrected Ubar = 1, pressure gradient = 0.00720019
smoothSolver:  Solving for omega, Initial residual = 4.38892e-06, Final residual = 4.38892e-06, No Iterations 0
smoothSolver:  Solving for k, Initial residual = 1.01328e-05, Final residual = 6.39879e-06, No Iterations 1
ExecutionTime = 9.77218 s  ClockTime = 9 s

Time = 3670s

smoothSolver:  Solving for Ux, Initial residual = 2.89032e-06, Final residual = 2.89032e-06, No Iterations 0
smoothSolver:  Solving for Uy, Initial residual = 0.000216722, Final residual = 1.60943e-05, No Iterations 4
Pressure gradient source: uncorrected Ubar = 1, pressure gradient = 0.00720019
GAMG:  Solving for p, Initial residual = 0.000107196, Final residual = 3.91766e-06, No Iterations 4
time step continuity errors : sum local = 1.22433e-11, global = -9.40772e-19, cumulative = -6.72186e-17
Pressure gradient source: uncorrected Ubar = 1, pressure gradient = 0.00720017
smoothSolver:  Solving for omega, Initial residual = 4.38892e-06, Final residual = 4.38892e-06, No Iterations 0
smoothSolver:  Solving for k, Initial residual = 1.01073e-05, Final residual = 6.37916e-06, No Iterations 1
ExecutionTime = 9.77457 s  ClockTime = 9 s

Time = 3671s

smoothSolver:  Solving for Ux, Initial residual = 2.89432e-06, Final residual = 2.89432e-06, No Iterations 0
smoothSolver:  Solving for Uy, Initial residual = 0.00022582, Final residual = 1.68193e-05, No Iterations 4
Pressure gradient source: uncorrected Ubar = 1, pressure gradient = 0.00720017
GAMG:  Solving for p, Initial residual = 0.000115356, Final residual = 9.70591e-06, No Iterations 4
time step continuity errors : sum local = 2.79573e-11, global = 8.50697e-19, cumulative = -6.63679e-17
Pressure gradient source: uncorrected Ubar = 1, pressure gradient = 0.00720015
smoothSolver:  Solving for omega, Initial residual = 4.38892e-06, Final residual = 4.38892e-06, No Iterations 0
smoothSolver:  Solving for k, Initial residual = 1.00907e-05, Final residual = 6.3812e-06, No Iterations 1
ExecutionTime = 9.77699 s  ClockTime = 9 s

Time = 3672s

smoothSolver:  Solving for Ux, Initial residual = 2.89825e-06, Final residual = 2.89825e-06, No Iterations 0
smoothSolver:  Solving for Uy, Initial residual = 0.000196691, Final residual = 1.6299e-05, No Iterations 4
Pressure gradient source: uncorrected Ubar = 1, pressure gradient = 0.00720015
GAMG:  Solving for p, Initial residual = 8.69952e-05, Final residual = 3.67182e-06, No Iterations 4
time step continuity errors : sum local = 1.12695e-11, global = 3.52985e-18, cumulative = -6.2838e-17
Pressure gradient source: uncorrected Ubar = 1, pressure gradient = 0.00720013
smoothSolver:  Solving for omega, Initial residual = 4.38891e-06, Final residual = 4.38891e-06, No Iterations 0
smoothSolver:  Solving for k, Initial residual = 1.00664e-05, Final residual = 6.35704e-06, No Iterations 1
ExecutionTime = 9.77937 s  ClockTime = 9 s

Time = 3673s

smoothSolver:  Solving for Ux, Initial residual = 2.90225e-06, Final residual = 2.90225e-06, No Iterations 0
smoothSolver:  Solving for Uy, Initial residual = 0.000221488, Final residual = 1.6048e-05, No Iterations 4
Pressure gradient source: uncorrected Ubar = 1, pressure gradient = 0.00720013
GAMG:  Solving for p, Initial residual = 9.97571e-05, Final residual = 8.00909e-06, No Iterations 4
time step continuity errors : sum local = 2.30108e-11, global = 5.5877e-18, cumulative = -5.72503e-17
Pressure gradient source: uncorrected Ubar = 1, pressure gradient = 0.0072001
smoothSolver:  Solving for omega, Initial residual = 4.38891e-06, Final residual = 4.38891e-06, No Iterations 0
smoothSolver:  Solving for k, Initial residual = 1.00473e-05, Final residual = 6.3553e-06, No Iterations 1
ExecutionTime = 9.78177 s  ClockTime = 9 s

Time = 3674s

smoothSolver:  Solving for Ux, Initial residual = 2.90615e-06, Final residual = 2.90615e-06, No Iterations 0
smoothSolver:  Solving for Uy, Initial residual = 0.000208428, Final residual = 1.6914e-05, No Iterations 4
Pressure gradient source: uncorrected Ubar = 1, pressure gradient = 0.0072001
GAMG:  Solving for p, Initial residual = 9.74606e-05, Final residual = 3.54312e-06, No Iterations 4
time step continuity errors : sum local = 1.0832e-11, global = 3.65516e-18, cumulative = -5.35951e-17
Pressure gradient source: uncorrected Ubar = 1, pressure gradient = 0.00720008
smoothSolver:  Solving for omega, Initial residual = 4.38891e-06, Final residual = 4.38891e-06, No Iterations 0
smoothSolver:  Solving for k, Initial residual = 1.00178e-05, Final residual = 6.31639e-06, No Iterations 1
ExecutionTime = 9.78416 s  ClockTime = 9 s

Time = 3675s

smoothSolver:  Solving for Ux, Initial residual = 2.91007e-06, Final residual = 2.91007e-06, No Iterations 0
smoothSolver:  Solving for Uy, Initial residual = 0.000228015, Final residual = 1.77194e-05, No Iterations 4
Pressure gradient source: uncorrected Ubar = 1, pressure gradient = 0.00720008
GAMG:  Solving for p, Initial residual = 0.000104043, Final residual = 9.43907e-06, No Iterations 3
time step continuity errors : sum local = 2.66282e-11, global = 6.27947e-18, cumulative = -4.73157e-17
Pressure gradient source: uncorrected Ubar = 1, pressure gradient = 0.00720006
smoothSolver:  Solving for omega, Initial residual = 4.3889e-06, Final residual = 4.3889e-06, No Iterations 0
smoothSolver:  Solving for k, Initial residual = 1.00025e-05, Final residual = 6.32273e-06, No Iterations 1
ExecutionTime = 9.78651 s  ClockTime = 9 s

Time = 3676s

smoothSolver:  Solving for Ux, Initial residual = 2.91392e-06, Final residual = 2.91392e-06, No Iterations 0
smoothSolver:  Solving for Uy, Initial residual = 0.000205556, Final residual = 1.69957e-05, No Iterations 4
Pressure gradient source: uncorrected Ubar = 1, pressure gradient = 0.00720006
GAMG:  Solving for p, Initial residual = 9.20383e-05, Final residual = 3.32126e-06, No Iterations 4
time step continuity errors : sum local = 1.02464e-11, global = 4.13972e-19, cumulative = -4.69017e-17
Pressure gradient source: uncorrected Ubar = 1, pressure gradient = 0.00720004
smoothSolver:  Solving for omega, Initial residual = 4.3889e-06, Final residual = 4.3889e-06, No Iterations 0
smoothSolver:  Solving for k, Initial residual = 9.97819e-06, Final residual = 9.97819e-06, No Iterations 0
ExecutionTime = 9.78895 s  ClockTime = 9 s

Time = 3677s

smoothSolver:  Solving for Ux, Initial residual = 2.91185e-06, Final residual = 2.91185e-06, No Iterations 0
smoothSolver:  Solving for Uy, Initial residual = 0.000150307, Final residual = 1.24051e-05, No Iterations 4
Pressure gradient source: uncorrected Ubar = 1, pressure gradient = 0.00720004
GAMG:  Solving for p, Initial residual = 7.31754e-05, Final residual = 6.65425e-06, No Iterations 4
time step continuity errors : sum local = 1.92015e-11, global = -2.16937e-18, cumulative = -4.90711e-17
Pressure gradient source: uncorrected Ubar = 1, pressure gradient = 0.00720004
smoothSolver:  Solving for omega, Initial residual = 4.38889e-06, Final residual = 4.38889e-06, No Iterations 0
smoothSolver:  Solving for k, Initial residual = 9.96053e-06, Final residual = 9.96053e-06, No Iterations 0
ExecutionTime = 9.79133 s  ClockTime = 9 s

Time = 3678s

smoothSolver:  Solving for Ux, Initial residual = 2.90971e-06, Final residual = 2.90971e-06, No Iterations 0
smoothSolver:  Solving for Uy, Initial residual = 0.000124955, Final residual = 9.32848e-06, No Iterations 4
Pressure gradient source: uncorrected Ubar = 1, pressure gradient = 0.00720004
GAMG:  Solving for p, Initial residual = 6.0465e-05, Final residual = 5.69473e-06, No Iterations 4
time step continuity errors : sum local = 1.64141e-11, global = 3.99576e-18, cumulative = -4.50753e-17
Pressure gradient source: uncorrected Ubar = 1, pressure gradient = 0.00720004
smoothSolver:  Solving for omega, Initial residual = 4.38889e-06, Final residual = 4.38889e-06, No Iterations 0
smoothSolver:  Solving for k, Initial residual = 9.94288e-06, Final residual = 9.94288e-06, No Iterations 0
ExecutionTime = 9.7938 s  ClockTime = 9 s

Time = 3679s

smoothSolver:  Solving for Ux, Initial residual = 2.90757e-06, Final residual = 2.90757e-06, No Iterations 0
smoothSolver:  Solving for Uy, Initial residual = 0.000106233, Final residual = 7.27277e-06, No Iterations 4
Pressure gradient source: uncorrected Ubar = 1, pressure gradient = 0.00720004
GAMG:  Solving for p, Initial residual = 5.10826e-05, Final residual = 4.29725e-06, No Iterations 4
time step continuity errors : sum local = 1.24377e-11, global = -3.13202e-18, cumulative = -4.82073e-17
Pressure gradient source: uncorrected Ubar = 1, pressure gradient = 0.00720005
smoothSolver:  Solving for omega, Initial residual = 4.38889e-06, Final residual = 4.38889e-06, No Iterations 0
smoothSolver:  Solving for k, Initial residual = 9.92524e-06, Final residual = 9.92524e-06, No Iterations 0
ExecutionTime = 9.79628 s  ClockTime = 9 s

Time = 3680s

smoothSolver:  Solving for Ux, Initial residual = 2.90544e-06, Final residual = 2.90544e-06, No Iterations 0
smoothSolver:  Solving for Uy, Initial residual = 9.24918e-05, Final residual = 6.11879e-06, No Iterations 4
Pressure gradient source: uncorrected Ubar = 1, pressure gradient = 0.00720005
GAMG:  Solving for p, Initial residual = 4.32838e-05, Final residual = 3.81045e-06, No Iterations 3
time step continuity errors : sum local = 1.09035e-11, global = 1.62672e-18, cumulative = -4.65806e-17
Pressure gradient source: uncorrected Ubar = 1, pressure gradient = 0.00720005
smoothSolver:  Solving for omega, Initial residual = 4.38888e-06, Final residual = 4.38888e-06, No Iterations 0
smoothSolver:  Solving for k, Initial residual = 9.90763e-06, Final residual = 9.90763e-06, No Iterations 0
ExecutionTime = 9.79861 s  ClockTime = 9 s


SIMPLE solution converged in 3680 iterations

End

