/*---------------------------------------------------------------------------*\
  =========                 |
  \\      /  F ield         | OpenFOAM: The Open Source CFD Toolbox
   \\    /   O peration     | Website:  https://openfoam.org
    \\  /    A nd           | Version:  10
     \\/     M anipulation  |
\*---------------------------------------------------------------------------*/
Build  : 10-e450dce21ea5
Exec   : blockMesh
Date   : Jan 16 2023
Time   : 11:42:42
Host   : "w530-R9YK46P"
PID    : 14222
I/O    : uncollated
Case   : /home/jdmezazeron/gitDanielMezaZ/turbulenceVisualized/Data/SimulationFiles/E9_Re622
nProcs : 1
sigFpe : Enabling floating point exception trapping (FOAM_SIGFPE).
fileModificationChecking : Monitoring run-time modified files using timeStampMaster (fileModificationSkew 10)
allowSystemOperations : Allowing user-supplied system call operations

// * * * * * * * * * * * * * * * * * * * * * * * * * * * * * * * * * * * * * //
Create time

Reading "blockMeshDict"

Creating block mesh from
    "system/blockMeshDict"
Creating block edges
No non-planar block faces defined
Creating topology blocks
Creating topology patches

Creating block mesh topology

Check topology

	Basic statistics
		Number of internal faces : 0
		Number of boundary faces : 6
		Number of defined boundary faces : 6
		Number of undefined boundary faces : 0
	Checking patch -> block consistency

Creating block offsets
Creating merge list .

Creating polyMesh from blockMesh
Creating patches
Creating cells
Creating points with scale 1
    Block 0 cell size :
        i : 0.5
        j : 0.00921276 .. 0.036851
        k : 2

Detected cyclic patches; ordering boundary faces

Writing polyMesh
----------------
Mesh Information
----------------
  boundingBox: (-1 0 -1) (1 1 1)
  nPoints: 510
  nCells: 200
  nFaces: 854
  nInternalFaces: 346
----------------
Patches
----------------
  patch 0 (start: 346 size: 50) name: inlet
  patch 1 (start: 396 size: 50) name: outlet
  patch 2 (start: 446 size: 4) name: fixedWalls-bottom
  patch 3 (start: 450 size: 4) name: fixedWalls-top
  patch 4 (start: 454 size: 400) name: frontAndBack

End

/*---------------------------------------------------------------------------*\
  =========                 |
  \\      /  F ield         | OpenFOAM: The Open Source CFD Toolbox
   \\    /   O peration     | Website:  https://openfoam.org
    \\  /    A nd           | Version:  10
     \\/     M anipulation  |
\*---------------------------------------------------------------------------*/
Build  : 10-e450dce21ea5
Exec   : simpleFoam
Date   : Jan 16 2023
Time   : 11:42:42
Host   : "w530-R9YK46P"
PID    : 14223
I/O    : uncollated
Case   : /home/jdmezazeron/gitDanielMezaZ/turbulenceVisualized/Data/SimulationFiles/E9_Re622
nProcs : 1
sigFpe : Enabling floating point exception trapping (FOAM_SIGFPE).
fileModificationChecking : Monitoring run-time modified files using timeStampMaster (fileModificationSkew 10)
allowSystemOperations : Allowing user-supplied system call operations

// * * * * * * * * * * * * * * * * * * * * * * * * * * * * * * * * * * * * * //
Create time

Create mesh for time = 0


SIMPLE: Convergence criteria found
        U: tolerance 0.01
        p: tolerance 0.01
        omega: tolerance 0.0001

Reading field p

Reading field U

Reading/calculating face flux field phi

Selecting viscosity model Newtonian
Selecting turbulence model type RAS
Selecting RAS turbulence model kOmegaSST
Selecting patchDistMethod meshWave
RAS
{
    RASModel        kOmegaSST;
    turbulence      on;
    printCoeffs     on;
    alphaK1         0.85;
    alphaK2         1;
    alphaOmega1     0.5;
    alphaOmega2     0.856;
    gamma1          0.555556;
    gamma2          0.44;
    beta1           0.075;
    beta2           0.0828;
    betaStar        0.09;
    a1              0.31;
    b1              1;
    c1              10;
    F3              false;
}

No MRF models present

--> FOAM Warning : Creating fvModels from "system/fvOptions" rather than constant/fvModels
No fvModels present
--> FOAM Warning : Creating fvConstraints from "system/fvOptions"

Selecting finite volume constraint type meanVelocityForce
    Name: momentumSource
    - selecting all cells
    - selected 200 cell(s) with volume 4
    Initial pressure gradient = 0


Starting time loop

turbulenceFields stressComponents: storing fields:
    R

Time = 1s

smoothSolver:  Solving for Ux, Initial residual = 0, Final residual = 0, No Iterations 0
smoothSolver:  Solving for Uy, Initial residual = 0, Final residual = 0, No Iterations 0
Pressure gradient source: uncorrected Ubar = 0, pressure gradient = 12.9917
GAMG:  Solving for p, Initial residual = 0.999988, Final residual = 0.0652956, No Iterations 3
time step continuity errors : sum local = 3.5839e-17, global = -7.34778e-20, cumulative = -7.34778e-20
Pressure gradient source: uncorrected Ubar = 0.869362, pressure gradient = 1.6972
smoothSolver:  Solving for omega, Initial residual = 0.0198404, Final residual = 0.0010338, No Iterations 2
smoothSolver:  Solving for k, Initial residual = 1, Final residual = 0.042245, No Iterations 1
ExecutionTime = 0.013135 s  ClockTime = 0 s

Time = 2s

smoothSolver:  Solving for Ux, Initial residual = 0.370529, Final residual = 0.0325863, No Iterations 6
smoothSolver:  Solving for Uy, Initial residual = 1, Final residual = 0.068893, No Iterations 2
Pressure gradient source: uncorrected Ubar = 1.73444, pressure gradient = -11.6452
GAMG:  Solving for p, Initial residual = 1, Final residual = 0.0766987, No Iterations 6
time step continuity errors : sum local = 0.000600857, global = 9.05859e-18, cumulative = 8.98512e-18
Pressure gradient source: uncorrected Ubar = 1.09874, pressure gradient = -0.0965252
smoothSolver:  Solving for omega, Initial residual = 0.138516, Final residual = 0.000636054, No Iterations 1
smoothSolver:  Solving for k, Initial residual = 0.144568, Final residual = 0.0140482, No Iterations 2
ExecutionTime = 0.015375 s  ClockTime = 0 s

Time = 3s

smoothSolver:  Solving for Ux, Initial residual = 0.0570215, Final residual = 0.00514828, No Iterations 5
smoothSolver:  Solving for Uy, Initial residual = 0.407647, Final residual = 0.0250282, No Iterations 3
Pressure gradient source: uncorrected Ubar = 0.940439, pressure gradient = 1.03849
GAMG:  Solving for p, Initial residual = 0.207004, Final residual = 0.00980604, No Iterations 4
time step continuity errors : sum local = 0.000178657, global = -1.31713e-17, cumulative = -4.18614e-18
Pressure gradient source: uncorrected Ubar = 0.991576, pressure gradient = 0.0639978
smoothSolver:  Solving for omega, Initial residual = 0.00904092, Final residual = 0.000229279, No Iterations 1
smoothSolver:  Solving for k, Initial residual = 0.0523005, Final residual = 0.00425613, No Iterations 3
ExecutionTime = 0.017408 s  ClockTime = 0 s

Time = 4s

smoothSolver:  Solving for Ux, Initial residual = 0.0290565, Final residual = 0.00200704, No Iterations 5
smoothSolver:  Solving for Uy, Initial residual = 0.351345, Final residual = 0.0234188, No Iterations 3
Pressure gradient source: uncorrected Ubar = 1.00883, pressure gradient = -0.101758
GAMG:  Solving for p, Initial residual = 0.137464, Final residual = 0.0129303, No Iterations 6
time step continuity errors : sum local = 0.000230954, global = 2.46995e-18, cumulative = -1.71619e-18
Pressure gradient source: uncorrected Ubar = 1.00118, pressure gradient = 0.0418825
smoothSolver:  Solving for omega, Initial residual = 0.00874338, Final residual = 0.000165333, No Iterations 1
smoothSolver:  Solving for k, Initial residual = 0.0312986, Final residual = 0.00202427, No Iterations 4
ExecutionTime = 0.019632 s  ClockTime = 0 s

Time = 5s

smoothSolver:  Solving for Ux, Initial residual = 0.0201332, Final residual = 0.00140456, No Iterations 5
smoothSolver:  Solving for Uy, Initial residual = 0.242335, Final residual = 0.022175, No Iterations 3
Pressure gradient source: uncorrected Ubar = 1.00287, pressure gradient = -0.0120399
GAMG:  Solving for p, Initial residual = 0.121402, Final residual = 0.0115541, No Iterations 5
time step continuity errors : sum local = 0.000164161, global = 1.55071e-18, cumulative = -1.65487e-19
Pressure gradient source: uncorrected Ubar = 1.00036, pressure gradient = 0.0351618
smoothSolver:  Solving for omega, Initial residual = 0.00349118, Final residual = 0.000103786, No Iterations 1
smoothSolver:  Solving for k, Initial residual = 0.023074, Final residual = 0.00181649, No Iterations 4
ExecutionTime = 0.021792 s  ClockTime = 0 s

Time = 6s

smoothSolver:  Solving for Ux, Initial residual = 0.0154673, Final residual = 0.00110503, No Iterations 5
smoothSolver:  Solving for Uy, Initial residual = 0.294676, Final residual = 0.0175889, No Iterations 3
Pressure gradient source: uncorrected Ubar = 1.00239, pressure gradient = -0.0096422
GAMG:  Solving for p, Initial residual = 0.0970491, Final residual = 0.00757028, No Iterations 5
time step continuity errors : sum local = 8.21807e-05, global = -7.97397e-18, cumulative = -8.13946e-18
Pressure gradient source: uncorrected Ubar = 1.00029, pressure gradient = 0.0296302
smoothSolver:  Solving for omega, Initial residual = 0.00234933, Final residual = 6.6604e-05, No Iterations 1
smoothSolver:  Solving for k, Initial residual = 0.0196008, Final residual = 0.00152579, No Iterations 4
ExecutionTime = 0.023916 s  ClockTime = 0 s

Time = 7s

smoothSolver:  Solving for Ux, Initial residual = 0.0121966, Final residual = 0.000890994, No Iterations 5
smoothSolver:  Solving for Uy, Initial residual = 0.51054, Final residual = 0.0281979, No Iterations 3
Pressure gradient source: uncorrected Ubar = 1.00178, pressure gradient = -0.00356964
GAMG:  Solving for p, Initial residual = 0.114762, Final residual = 0.00847515, No Iterations 5
time step continuity errors : sum local = 7.06655e-05, global = -3.20433e-18, cumulative = -1.13438e-17
Pressure gradient source: uncorrected Ubar = 1.00021, pressure gradient = 0.0256254
smoothSolver:  Solving for omega, Initial residual = 0.00118857, Final residual = 4.11028e-05, No Iterations 1
smoothSolver:  Solving for k, Initial residual = 0.0167222, Final residual = 0.00111834, No Iterations 4
ExecutionTime = 0.025935 s  ClockTime = 0 s

Time = 8s

smoothSolver:  Solving for Ux, Initial residual = 0.00994035, Final residual = 0.000740219, No Iterations 5
smoothSolver:  Solving for Uy, Initial residual = 0.694612, Final residual = 0.0353208, No Iterations 3
Pressure gradient source: uncorrected Ubar = 1.00129, pressure gradient = 0.00153703
GAMG:  Solving for p, Initial residual = 0.139538, Final residual = 0.0113469, No Iterations 5
time step continuity errors : sum local = 7.5647e-05, global = -3.18823e-18, cumulative = -1.4532e-17
Pressure gradient source: uncorrected Ubar = 1.00015, pressure gradient = 0.0227992
smoothSolver:  Solving for omega, Initial residual = 0.000705751, Final residual = 2.73231e-05, No Iterations 1
smoothSolver:  Solving for k, Initial residual = 0.0151204, Final residual = 0.00109073, No Iterations 4
ExecutionTime = 0.027884 s  ClockTime = 0 s

Time = 9s

smoothSolver:  Solving for Ux, Initial residual = 0.00827581, Final residual = 0.000628286, No Iterations 5
smoothSolver:  Solving for Uy, Initial residual = 0.737179, Final residual = 0.0392124, No Iterations 3
Pressure gradient source: uncorrected Ubar = 1.00108, pressure gradient = 0.00276727
GAMG:  Solving for p, Initial residual = 0.153466, Final residual = 0.012961, No Iterations 5
time step continuity errors : sum local = 7.0494e-05, global = -4.06322e-18, cumulative = -1.85952e-17
Pressure gradient source: uncorrected Ubar = 1.00013, pressure gradient = 0.0204709
smoothSolver:  Solving for omega, Initial residual = 0.000386039, Final residual = 1.7611e-05, No Iterations 1
smoothSolver:  Solving for k, Initial residual = 0.0136531, Final residual = 0.00119277, No Iterations 4
ExecutionTime = 0.02987 s  ClockTime = 0 s

Time = 10s

smoothSolver:  Solving for Ux, Initial residual = 0.00697431, Final residual = 0.000539743, No Iterations 5
smoothSolver:  Solving for Uy, Initial residual = 0.732093, Final residual = 0.039261, No Iterations 3
Pressure gradient source: uncorrected Ubar = 1.00081, pressure gradient = 0.00545587
GAMG:  Solving for p, Initial residual = 0.144496, Final residual = 0.011124, No Iterations 5
time step continuity errors : sum local = 5.55922e-05, global = 4.03315e-18, cumulative = -1.45621e-17
Pressure gradient source: uncorrected Ubar = 1.00009, pressure gradient = 0.0187695
smoothSolver:  Solving for omega, Initial residual = 0.000222379, Final residual = 1.26942e-05, No Iterations 1
smoothSolver:  Solving for k, Initial residual = 0.0124759, Final residual = 0.000860576, No Iterations 5
ExecutionTime = 0.031908 s  ClockTime = 0 s

Time = 11s

smoothSolver:  Solving for Ux, Initial residual = 0.00594646, Final residual = 0.000469564, No Iterations 5
smoothSolver:  Solving for Uy, Initial residual = 0.671251, Final residual = 0.0355493, No Iterations 3
Pressure gradient source: uncorrected Ubar = 1.00075, pressure gradient = 0.00503778
GAMG:  Solving for p, Initial residual = 0.134502, Final residual = 0.011207, No Iterations 5
time step continuity errors : sum local = 4.72864e-05, global = -8.38732e-18, cumulative = -2.29494e-17
Pressure gradient source: uncorrected Ubar = 1.00009, pressure gradient = 0.0171977
smoothSolver:  Solving for omega, Initial residual = 0.000126235, Final residual = 8.97738e-06, No Iterations 1
smoothSolver:  Solving for k, Initial residual = 0.0111746, Final residual = 0.000856127, No Iterations 5
ExecutionTime = 0.033956 s  ClockTime = 0 s

Time = 12s

smoothSolver:  Solving for Ux, Initial residual = 0.00510205, Final residual = 0.000411269, No Iterations 5
smoothSolver:  Solving for Uy, Initial residual = 0.600163, Final residual = 0.0316012, No Iterations 3
Pressure gradient source: uncorrected Ubar = 1.00058, pressure gradient = 0.00665058
GAMG:  Solving for p, Initial residual = 0.122433, Final residual = 0.00902206, No Iterations 4
time step continuity errors : sum local = 3.29704e-05, global = 6.99175e-18, cumulative = -1.59576e-17
Pressure gradient source: uncorrected Ubar = 1.00006, pressure gradient = 0.0160232
smoothSolver:  Solving for omega, Initial residual = 7.34374e-05, Final residual = 6.77024e-06, No Iterations 1
smoothSolver:  Solving for k, Initial residual = 0.00982722, Final residual = 0.000702153, No Iterations 4
ExecutionTime = 0.03617 s  ClockTime = 0 s

Time = 13s

smoothSolver:  Solving for Ux, Initial residual = 0.00444628, Final residual = 0.00036268, No Iterations 5
smoothSolver:  Solving for Uy, Initial residual = 0.560719, Final residual = 0.0302077, No Iterations 3
Pressure gradient source: uncorrected Ubar = 1.00045, pressure gradient = 0.00797685
GAMG:  Solving for p, Initial residual = 0.120228, Final residual = 0.00791819, No Iterations 4
time step continuity errors : sum local = 2.45826e-05, global = 1.39528e-18, cumulative = -1.45624e-17
Pressure gradient source: uncorrected Ubar = 1.00005, pressure gradient = 0.0151585
smoothSolver:  Solving for omega, Initial residual = 4.33857e-05, Final residual = 5.30968e-06, No Iterations 1
smoothSolver:  Solving for k, Initial residual = 0.00882198, Final residual = 0.000863991, No Iterations 4
ExecutionTime = 0.038272 s  ClockTime = 0 s

Time = 14s

smoothSolver:  Solving for Ux, Initial residual = 0.00389375, Final residual = 0.000321473, No Iterations 5
smoothSolver:  Solving for Uy, Initial residual = 0.517167, Final residual = 0.027803, No Iterations 3
Pressure gradient source: uncorrected Ubar = 1.00036, pressure gradient = 0.00865651
GAMG:  Solving for p, Initial residual = 0.113173, Final residual = 0.01121, No Iterations 3
time step continuity errors : sum local = 2.96986e-05, global = -1.59462e-17, cumulative = -3.05086e-17
Pressure gradient source: uncorrected Ubar = 1.00004, pressure gradient = 0.0144763
smoothSolver:  Solving for omega, Initial residual = 2.63028e-05, Final residual = 4.22329e-06, No Iterations 1
smoothSolver:  Solving for k, Initial residual = 0.00796659, Final residual = 0.000496784, No Iterations 5
ExecutionTime = 0.040292 s  ClockTime = 0 s

Time = 15s

smoothSolver:  Solving for Ux, Initial residual = 0.00343232, Final residual = 0.000286562, No Iterations 5
smoothSolver:  Solving for Uy, Initial residual = 0.447942, Final residual = 0.0217907, No Iterations 3
Pressure gradient source: uncorrected Ubar = 1.00033, pressure gradient = 0.00856206
GAMG:  Solving for p, Initial residual = 0.112423, Final residual = 0.0100967, No Iterations 3
time step continuity errors : sum local = 2.34057e-05, global = 1.33747e-18, cumulative = -2.91712e-17
Pressure gradient source: uncorrected Ubar = 1.00003, pressure gradient = 0.0138512
smoothSolver:  Solving for omega, Initial residual = 1.6485e-05, Final residual = 3.328e-06, No Iterations 1
smoothSolver:  Solving for k, Initial residual = 0.00691913, Final residual = 0.00052341, No Iterations 4
ExecutionTime = 0.042317 s  ClockTime = 0 s

Time = 16s

smoothSolver:  Solving for Ux, Initial residual = 0.00304484, Final residual = 0.000257039, No Iterations 5
smoothSolver:  Solving for Uy, Initial residual = 0.433751, Final residual = 0.0204745, No Iterations 3
Pressure gradient source: uncorrected Ubar = 1.00027, pressure gradient = 0.00901682
GAMG:  Solving for p, Initial residual = 0.105846, Final residual = 0.00918867, No Iterations 3
time step continuity errors : sum local = 1.80856e-05, global = 8.33727e-18, cumulative = -2.08339e-17
Pressure gradient source: uncorrected Ubar = 1.00003, pressure gradient = 0.0133544
smoothSolver:  Solving for omega, Initial residual = 1.07645e-05, Final residual = 2.86591e-06, No Iterations 1
smoothSolver:  Solving for k, Initial residual = 0.00616128, Final residual = 0.000473571, No Iterations 4
ExecutionTime = 0.044279 s  ClockTime = 0 s

Time = 17s

smoothSolver:  Solving for Ux, Initial residual = 0.00271612, Final residual = 0.000231003, No Iterations 5
smoothSolver:  Solving for Uy, Initial residual = 0.435472, Final residual = 0.0200318, No Iterations 3
Pressure gradient source: uncorrected Ubar = 1.00024, pressure gradient = 0.00913804
GAMG:  Solving for p, Initial residual = 0.107028, Final residual = 0.00917629, No Iterations 3
time step continuity errors : sum local = 1.53025e-05, global = 2.08222e-18, cumulative = -1.87517e-17
Pressure gradient source: uncorrected Ubar = 1.00002, pressure gradient = 0.0129253
smoothSolver:  Solving for omega, Initial residual = 7.37911e-06, Final residual = 7.37911e-06, No Iterations 0
smoothSolver:  Solving for k, Initial residual = 0.00600334, Final residual = 0.000374065, No Iterations 5
ExecutionTime = 0.046187 s  ClockTime = 0 s

Time = 18s

smoothSolver:  Solving for Ux, Initial residual = 0.00240558, Final residual = 0.00020732, No Iterations 5
smoothSolver:  Solving for Uy, Initial residual = 0.434468, Final residual = 0.0197598, No Iterations 3
Pressure gradient source: uncorrected Ubar = 1.00022, pressure gradient = 0.00900336
GAMG:  Solving for p, Initial residual = 0.106287, Final residual = 0.00937039, No Iterations 3
time step continuity errors : sum local = 1.36782e-05, global = -5.25403e-18, cumulative = -2.40057e-17
Pressure gradient source: uncorrected Ubar = 1.00002, pressure gradient = 0.0125207
smoothSolver:  Solving for omega, Initial residual = 7.4147e-06, Final residual = 7.4147e-06, No Iterations 0
smoothSolver:  Solving for k, Initial residual = 0.006098, Final residual = 0.000459098, No Iterations 5
ExecutionTime = 0.04807 s  ClockTime = 0 s

Time = 19s

smoothSolver:  Solving for Ux, Initial residual = 0.00214413, Final residual = 0.000186107, No Iterations 5
smoothSolver:  Solving for Uy, Initial residual = 0.436778, Final residual = 0.019536, No Iterations 3
Pressure gradient source: uncorrected Ubar = 1.00018, pressure gradient = 0.00932337
GAMG:  Solving for p, Initial residual = 0.100954, Final residual = 0.00917182, No Iterations 3
time step continuity errors : sum local = 1.1969e-05, global = 9.01455e-18, cumulative = -1.49911e-17
Pressure gradient source: uncorrected Ubar = 1.00002, pressure gradient = 0.0122018
smoothSolver:  Solving for omega, Initial residual = 7.45696e-06, Final residual = 7.45696e-06, No Iterations 0
smoothSolver:  Solving for k, Initial residual = 0.00616675, Final residual = 0.000356761, No Iterations 5
ExecutionTime = 0.05012 s  ClockTime = 0 s

Time = 20s

smoothSolver:  Solving for Ux, Initial residual = 0.00191932, Final residual = 0.000167993, No Iterations 5
smoothSolver:  Solving for Uy, Initial residual = 0.39902, Final residual = 0.0176904, No Iterations 3
Pressure gradient source: uncorrected Ubar = 1.00016, pressure gradient = 0.00944608
GAMG:  Solving for p, Initial residual = 0.0965176, Final residual = 0.00920693, No Iterations 3
time step continuity errors : sum local = 1.07023e-05, global = 1.86638e-18, cumulative = -1.31248e-17
Pressure gradient source: uncorrected Ubar = 1.00002, pressure gradient = 0.0119316
smoothSolver:  Solving for omega, Initial residual = 7.49188e-06, Final residual = 7.49188e-06, No Iterations 0
smoothSolver:  Solving for k, Initial residual = 0.00623559, Final residual = 0.000398741, No Iterations 5
ExecutionTime = 0.052479 s  ClockTime = 0 s

Time = 21s

smoothSolver:  Solving for Ux, Initial residual = 0.00172271, Final residual = 0.000151853, No Iterations 5
smoothSolver:  Solving for Uy, Initial residual = 0.40751, Final residual = 0.0185156, No Iterations 3
Pressure gradient source: uncorrected Ubar = 1.00015, pressure gradient = 0.009364
GAMG:  Solving for p, Initial residual = 0.0905142, Final residual = 0.00815478, No Iterations 3
time step continuity errors : sum local = 8.28859e-06, global = 2.69092e-18, cumulative = -1.04338e-17
Pressure gradient source: uncorrected Ubar = 1.00001, pressure gradient = 0.011677
smoothSolver:  Solving for omega, Initial residual = 7.51645e-06, Final residual = 7.51645e-06, No Iterations 0
smoothSolver:  Solving for k, Initial residual = 0.00618339, Final residual = 0.000359757, No Iterations 5
ExecutionTime = 0.054647 s  ClockTime = 0 s

Time = 22s

smoothSolver:  Solving for Ux, Initial residual = 0.00155011, Final residual = 0.000137721, No Iterations 5
smoothSolver:  Solving for Uy, Initial residual = 0.420154, Final residual = 0.0197873, No Iterations 3
Pressure gradient source: uncorrected Ubar = 1.00013, pressure gradient = 0.00951878
GAMG:  Solving for p, Initial residual = 0.0889049, Final residual = 0.00791104, No Iterations 3
time step continuity errors : sum local = 7.14743e-06, global = 2.99564e-18, cumulative = -7.43821e-18
Pressure gradient source: uncorrected Ubar = 1.00001, pressure gradient = 0.0114696
smoothSolver:  Solving for omega, Initial residual = 7.53932e-06, Final residual = 7.53932e-06, No Iterations 0
smoothSolver:  Solving for k, Initial residual = 0.00620056, Final residual = 0.00055333, No Iterations 4
ExecutionTime = 0.056673 s  ClockTime = 0 s

Time = 23s

smoothSolver:  Solving for Ux, Initial residual = 0.00139599, Final residual = 0.000125335, No Iterations 5
smoothSolver:  Solving for Uy, Initial residual = 0.426512, Final residual = 0.0205992, No Iterations 3
Pressure gradient source: uncorrected Ubar = 1.00011, pressure gradient = 0.00966832
GAMG:  Solving for p, Initial residual = 0.0886893, Final residual = 0.00787262, No Iterations 3
time step continuity errors : sum local = 6.23538e-06, global = -1.18063e-18, cumulative = -8.61884e-18
Pressure gradient source: uncorrected Ubar = 1.00001, pressure gradient = 0.0113029
smoothSolver:  Solving for omega, Initial residual = 7.56359e-06, Final residual = 7.56359e-06, No Iterations 0
smoothSolver:  Solving for k, Initial residual = 0.0062747, Final residual = 0.000603828, No Iterations 4
ExecutionTime = 0.058695 s  ClockTime = 0 s

Time = 24s

smoothSolver:  Solving for Ux, Initial residual = 0.00126447, Final residual = 0.000114185, No Iterations 5
smoothSolver:  Solving for Uy, Initial residual = 0.459973, Final residual = 0.0234861, No Iterations 3
Pressure gradient source: uncorrected Ubar = 1.0001, pressure gradient = 0.00966228
GAMG:  Solving for p, Initial residual = 0.0857605, Final residual = 0.00803912, No Iterations 3
time step continuity errors : sum local = 5.70574e-06, global = 1.75177e-19, cumulative = -8.44366e-18
Pressure gradient source: uncorrected Ubar = 1.00001, pressure gradient = 0.011151
smoothSolver:  Solving for omega, Initial residual = 7.57686e-06, Final residual = 7.57686e-06, No Iterations 0
smoothSolver:  Solving for k, Initial residual = 0.00632903, Final residual = 0.000411513, No Iterations 5
ExecutionTime = 0.060937 s  ClockTime = 0 s

Time = 25s

smoothSolver:  Solving for Ux, Initial residual = 0.00114737, Final residual = 0.000104346, No Iterations 5
smoothSolver:  Solving for Uy, Initial residual = 0.463459, Final residual = 0.0229296, No Iterations 3
Pressure gradient source: uncorrected Ubar = 1.00009, pressure gradient = 0.00963546
GAMG:  Solving for p, Initial residual = 0.0842277, Final residual = 0.0073068, No Iterations 3
time step continuity errors : sum local = 4.58644e-06, global = -3.54102e-18, cumulative = -1.19847e-17
Pressure gradient source: uncorrected Ubar = 1.00001, pressure gradient = 0.0110099
smoothSolver:  Solving for omega, Initial residual = 7.59155e-06, Final residual = 7.59155e-06, No Iterations 0
smoothSolver:  Solving for k, Initial residual = 0.00629433, Final residual = 0.000371686, No Iterations 5
ExecutionTime = 0.063091 s  ClockTime = 0 s

Time = 26s

smoothSolver:  Solving for Ux, Initial residual = 0.00104759, Final residual = 9.53375e-05, No Iterations 5
smoothSolver:  Solving for Uy, Initial residual = 0.429808, Final residual = 0.0208351, No Iterations 3
Pressure gradient source: uncorrected Ubar = 1.00008, pressure gradient = 0.00967988
GAMG:  Solving for p, Initial residual = 0.0854692, Final residual = 0.0066309, No Iterations 3
time step continuity errors : sum local = 3.52235e-06, global = -6.11736e-18, cumulative = -1.8102e-17
Pressure gradient source: uncorrected Ubar = 1.00001, pressure gradient = 0.0108885
smoothSolver:  Solving for omega, Initial residual = 7.60913e-06, Final residual = 7.60913e-06, No Iterations 0
smoothSolver:  Solving for k, Initial residual = 0.00633491, Final residual = 0.00040677, No Iterations 5
ExecutionTime = 0.065306 s  ClockTime = 0 s

Time = 27s

smoothSolver:  Solving for Ux, Initial residual = 0.000958149, Final residual = 8.7143e-05, No Iterations 5
smoothSolver:  Solving for Uy, Initial residual = 0.410005, Final residual = 0.0198188, No Iterations 3
Pressure gradient source: uncorrected Ubar = 1.00007, pressure gradient = 0.00971323
GAMG:  Solving for p, Initial residual = 0.0909562, Final residual = 0.00633089, No Iterations 3
time step continuity errors : sum local = 2.97397e-06, global = -4.73883e-18, cumulative = -2.28409e-17
Pressure gradient source: uncorrected Ubar = 1.00001, pressure gradient = 0.010783
smoothSolver:  Solving for omega, Initial residual = 7.62318e-06, Final residual = 7.62318e-06, No Iterations 0
smoothSolver:  Solving for k, Initial residual = 0.00636024, Final residual = 0.000608657, No Iterations 4
ExecutionTime = 0.067494 s  ClockTime = 0 s

Time = 28s

smoothSolver:  Solving for Ux, Initial residual = 0.000878716, Final residual = 7.98281e-05, No Iterations 5
smoothSolver:  Solving for Uy, Initial residual = 0.415029, Final residual = 0.0205365, No Iterations 3
Pressure gradient source: uncorrected Ubar = 1.00006, pressure gradient = 0.0097205
GAMG:  Solving for p, Initial residual = 0.091664, Final residual = 0.00591831, No Iterations 3
time step continuity errors : sum local = 2.36351e-06, global = 3.514e-18, cumulative = -1.93269e-17
Pressure gradient source: uncorrected Ubar = 1.00001, pressure gradient = 0.0106884
smoothSolver:  Solving for omega, Initial residual = 7.63861e-06, Final residual = 7.63861e-06, No Iterations 0
smoothSolver:  Solving for k, Initial residual = 0.00643839, Final residual = 0.000451082, No Iterations 5
ExecutionTime = 0.069544 s  ClockTime = 0 s

Time = 29s

smoothSolver:  Solving for Ux, Initial residual = 0.000807916, Final residual = 7.33244e-05, No Iterations 5
smoothSolver:  Solving for Uy, Initial residual = 0.437583, Final residual = 0.0224517, No Iterations 3
Pressure gradient source: uncorrected Ubar = 1.00006, pressure gradient = 0.00971106
GAMG:  Solving for p, Initial residual = 0.0941786, Final residual = 0.00601276, No Iterations 3
time step continuity errors : sum local = 2.04135e-06, global = -3.49081e-18, cumulative = -2.28177e-17
Pressure gradient source: uncorrected Ubar = 1.00001, pressure gradient = 0.0106012
smoothSolver:  Solving for omega, Initial residual = 7.64884e-06, Final residual = 7.64884e-06, No Iterations 0
smoothSolver:  Solving for k, Initial residual = 0.00644491, Final residual = 0.000452529, No Iterations 5
ExecutionTime = 0.071662 s  ClockTime = 0 s

Time = 30s

smoothSolver:  Solving for Ux, Initial residual = 0.000743766, Final residual = 6.74459e-05, No Iterations 5
smoothSolver:  Solving for Uy, Initial residual = 0.410068, Final residual = 0.0214835, No Iterations 3
Pressure gradient source: uncorrected Ubar = 1.00005, pressure gradient = 0.00972254
GAMG:  Solving for p, Initial residual = 0.091164, Final residual = 0.00614384, No Iterations 3
time step continuity errors : sum local = 1.79427e-06, global = -4.7921e-18, cumulative = -2.76098e-17
Pressure gradient source: uncorrected Ubar = 1, pressure gradient = 0.0105238
smoothSolver:  Solving for omega, Initial residual = 7.66104e-06, Final residual = 7.66104e-06, No Iterations 0
smoothSolver:  Solving for k, Initial residual = 0.00642461, Final residual = 0.000370771, No Iterations 5
ExecutionTime = 0.073872 s  ClockTime = 0 s

Time = 31s

smoothSolver:  Solving for Ux, Initial residual = 0.000684256, Final residual = 6.20598e-05, No Iterations 5
smoothSolver:  Solving for Uy, Initial residual = 0.413087, Final residual = 0.0214255, No Iterations 3
Pressure gradient source: uncorrected Ubar = 1.00005, pressure gradient = 0.00973569
GAMG:  Solving for p, Initial residual = 0.0897598, Final residual = 0.0066106, No Iterations 3
time step continuity errors : sum local = 1.63709e-06, global = 1.65105e-18, cumulative = -2.59587e-17
Pressure gradient source: uncorrected Ubar = 1, pressure gradient = 0.0104553
smoothSolver:  Solving for omega, Initial residual = 7.67636e-06, Final residual = 7.67636e-06, No Iterations 0
smoothSolver:  Solving for k, Initial residual = 0.00649241, Final residual = 0.000390297, No Iterations 5
ExecutionTime = 0.075899 s  ClockTime = 0 s

Time = 32s

smoothSolver:  Solving for Ux, Initial residual = 0.000630901, Final residual = 5.7083e-05, No Iterations 5
smoothSolver:  Solving for Uy, Initial residual = 0.386698, Final residual = 0.019518, No Iterations 3
Pressure gradient source: uncorrected Ubar = 1.00004, pressure gradient = 0.00973484
GAMG:  Solving for p, Initial residual = 0.0931666, Final residual = 0.00709868, No Iterations 3
time step continuity errors : sum local = 1.51778e-06, global = -8.35319e-18, cumulative = -3.43119e-17
Pressure gradient source: uncorrected Ubar = 1, pressure gradient = 0.010393
smoothSolver:  Solving for omega, Initial residual = 7.68875e-06, Final residual = 7.68875e-06, No Iterations 0
smoothSolver:  Solving for k, Initial residual = 0.0065668, Final residual = 0.000426627, No Iterations 5
ExecutionTime = 0.077913 s  ClockTime = 0 s

Time = 33s

smoothSolver:  Solving for Ux, Initial residual = 0.000582122, Final residual = 5.26649e-05, No Iterations 5
smoothSolver:  Solving for Uy, Initial residual = 0.373545, Final residual = 0.0180566, No Iterations 3
Pressure gradient source: uncorrected Ubar = 1.00004, pressure gradient = 0.00973293
GAMG:  Solving for p, Initial residual = 0.0937556, Final residual = 0.00732806, No Iterations 3
time step continuity errors : sum local = 1.35778e-06, global = -6.03339e-18, cumulative = -4.03453e-17
Pressure gradient source: uncorrected Ubar = 1, pressure gradient = 0.0103361
smoothSolver:  Solving for omega, Initial residual = 7.69262e-06, Final residual = 7.69262e-06, No Iterations 0
smoothSolver:  Solving for k, Initial residual = 0.00658505, Final residual = 0.000389142, No Iterations 5
ExecutionTime = 0.079882 s  ClockTime = 0 s

Time = 34s

smoothSolver:  Solving for Ux, Initial residual = 0.000539932, Final residual = 4.87424e-05, No Iterations 5
smoothSolver:  Solving for Uy, Initial residual = 0.340925, Final residual = 0.0151584, No Iterations 3
Pressure gradient source: uncorrected Ubar = 1.00004, pressure gradient = 0.00973573
GAMG:  Solving for p, Initial residual = 0.0851859, Final residual = 0.00649817, No Iterations 3
time step continuity errors : sum local = 1.08664e-06, global = -2.82429e-18, cumulative = -4.31696e-17
Pressure gradient source: uncorrected Ubar = 1, pressure gradient = 0.0102849
smoothSolver:  Solving for omega, Initial residual = 7.70439e-06, Final residual = 7.70439e-06, No Iterations 0
smoothSolver:  Solving for k, Initial residual = 0.00665296, Final residual = 0.000482923, No Iterations 5
ExecutionTime = 0.082041 s  ClockTime = 0 s

Time = 35s

smoothSolver:  Solving for Ux, Initial residual = 0.000500669, Final residual = 4.5129e-05, No Iterations 5
smoothSolver:  Solving for Uy, Initial residual = 0.310668, Final residual = 0.0130974, No Iterations 3
Pressure gradient source: uncorrected Ubar = 1.00003, pressure gradient = 0.00973473
GAMG:  Solving for p, Initial residual = 0.0869199, Final residual = 0.00655553, No Iterations 3
time step continuity errors : sum local = 9.27658e-07, global = 8.73875e-18, cumulative = -3.44309e-17
Pressure gradient source: uncorrected Ubar = 1, pressure gradient = 0.0102382
smoothSolver:  Solving for omega, Initial residual = 7.71209e-06, Final residual = 7.71209e-06, No Iterations 0
smoothSolver:  Solving for k, Initial residual = 0.00665361, Final residual = 0.000379151, No Iterations 5
ExecutionTime = 0.08406 s  ClockTime = 0 s

Time = 36s

smoothSolver:  Solving for Ux, Initial residual = 0.000465363, Final residual = 4.19785e-05, No Iterations 5
smoothSolver:  Solving for Uy, Initial residual = 0.274339, Final residual = 0.0118552, No Iterations 3
Pressure gradient source: uncorrected Ubar = 1.00003, pressure gradient = 0.00973889
GAMG:  Solving for p, Initial residual = 0.0849639, Final residual = 0.00637553, No Iterations 3
time step continuity errors : sum local = 7.93163e-07, global = 1.26532e-18, cumulative = -3.31655e-17
Pressure gradient source: uncorrected Ubar = 1, pressure gradient = 0.0101963
smoothSolver:  Solving for omega, Initial residual = 7.71701e-06, Final residual = 7.71701e-06, No Iterations 0
smoothSolver:  Solving for k, Initial residual = 0.00670877, Final residual = 0.000456585, No Iterations 5
ExecutionTime = 0.086133 s  ClockTime = 0 s

Time = 37s

smoothSolver:  Solving for Ux, Initial residual = 0.000434053, Final residual = 3.91792e-05, No Iterations 5
smoothSolver:  Solving for Uy, Initial residual = 0.269884, Final residual = 0.0129235, No Iterations 3
Pressure gradient source: uncorrected Ubar = 1.00003, pressure gradient = 0.00973328
GAMG:  Solving for p, Initial residual = 0.0754021, Final residual = 0.00568116, No Iterations 3
time step continuity errors : sum local = 6.45851e-07, global = 3.59089e-18, cumulative = -2.95746e-17
Pressure gradient source: uncorrected Ubar = 1, pressure gradient = 0.0101574
smoothSolver:  Solving for omega, Initial residual = 7.72452e-06, Final residual = 7.72452e-06, No Iterations 0
smoothSolver:  Solving for k, Initial residual = 0.0067467, Final residual = 0.000418679, No Iterations 5
ExecutionTime = 0.088308 s  ClockTime = 0 s

Time = 38s

smoothSolver:  Solving for Ux, Initial residual = 0.00040553, Final residual = 3.66168e-05, No Iterations 5
smoothSolver:  Solving for Uy, Initial residual = 0.254614, Final residual = 0.0120857, No Iterations 3
Pressure gradient source: uncorrected Ubar = 1.00003, pressure gradient = 0.00973542
GAMG:  Solving for p, Initial residual = 0.0849508, Final residual = 0.00650542, No Iterations 3
time step continuity errors : sum local = 6.58081e-07, global = -1.49681e-17, cumulative = -4.45428e-17
Pressure gradient source: uncorrected Ubar = 1, pressure gradient = 0.0101224
smoothSolver:  Solving for omega, Initial residual = 7.72932e-06, Final residual = 7.72932e-06, No Iterations 0
smoothSolver:  Solving for k, Initial residual = 0.00677857, Final residual = 0.00045112, No Iterations 5
ExecutionTime = 0.090665 s  ClockTime = 0 s

Time = 39s

smoothSolver:  Solving for Ux, Initial residual = 0.000380019, Final residual = 3.43714e-05, No Iterations 5
smoothSolver:  Solving for Uy, Initial residual = 0.235215, Final residual = 0.0113491, No Iterations 3
Pressure gradient source: uncorrected Ubar = 1.00002, pressure gradient = 0.00973351
GAMG:  Solving for p, Initial residual = 0.0772806, Final residual = 0.00594936, No Iterations 3
time step continuity errors : sum local = 5.41053e-07, global = -3.63774e-19, cumulative = -4.49065e-17
Pressure gradient source: uncorrected Ubar = 1, pressure gradient = 0.0100903
smoothSolver:  Solving for omega, Initial residual = 7.73728e-06, Final residual = 7.73728e-06, No Iterations 0
smoothSolver:  Solving for k, Initial residual = 0.0067915, Final residual = 0.000427457, No Iterations 5
ExecutionTime = 0.092737 s  ClockTime = 0 s

Time = 40s

smoothSolver:  Solving for Ux, Initial residual = 0.000357277, Final residual = 3.23882e-05, No Iterations 5
smoothSolver:  Solving for Uy, Initial residual = 0.210382, Final residual = 0.0101089, No Iterations 3
Pressure gradient source: uncorrected Ubar = 1.00002, pressure gradient = 0.00973572
GAMG:  Solving for p, Initial residual = 0.0859422, Final residual = 0.00743041, No Iterations 3
time step continuity errors : sum local = 6.17396e-07, global = -1.26692e-18, cumulative = -4.61735e-17
Pressure gradient source: uncorrected Ubar = 1, pressure gradient = 0.0100614
smoothSolver:  Solving for omega, Initial residual = 7.74488e-06, Final residual = 7.74488e-06, No Iterations 0
smoothSolver:  Solving for k, Initial residual = 0.00680106, Final residual = 0.000394307, No Iterations 5
ExecutionTime = 0.094731 s  ClockTime = 0 s

Time = 41s

smoothSolver:  Solving for Ux, Initial residual = 0.000336807, Final residual = 3.06181e-05, No Iterations 5
smoothSolver:  Solving for Uy, Initial residual = 0.18107, Final residual = 0.00887674, No Iterations 3
Pressure gradient source: uncorrected Ubar = 1.00002, pressure gradient = 0.00973462
GAMG:  Solving for p, Initial residual = 0.0780955, Final residual = 0.00562526, No Iterations 4
time step continuity errors : sum local = 4.02267e-07, global = -2.53421e-18, cumulative = -4.87077e-17
Pressure gradient source: uncorrected Ubar = 1, pressure gradient = 0.0100349
smoothSolver:  Solving for omega, Initial residual = 7.75637e-06, Final residual = 7.75637e-06, No Iterations 0
smoothSolver:  Solving for k, Initial residual = 0.00685142, Final residual = 0.000425266, No Iterations 5
ExecutionTime = 0.096929 s  ClockTime = 0 s

Time = 42s

smoothSolver:  Solving for Ux, Initial residual = 0.000318833, Final residual = 2.90989e-05, No Iterations 5
smoothSolver:  Solving for Uy, Initial residual = 0.180146, Final residual = 0.00944275, No Iterations 3
Pressure gradient source: uncorrected Ubar = 1.00002, pressure gradient = 0.00973128
GAMG:  Solving for p, Initial residual = 0.0655575, Final residual = 0.00636463, No Iterations 3
time step continuity errors : sum local = 4.31314e-07, global = -1.77104e-18, cumulative = -5.04787e-17
Pressure gradient source: uncorrected Ubar = 1, pressure gradient = 0.0100104
smoothSolver:  Solving for omega, Initial residual = 7.76176e-06, Final residual = 7.76176e-06, No Iterations 0
smoothSolver:  Solving for k, Initial residual = 0.00684476, Final residual = 0.000518375, No Iterations 5
ExecutionTime = 0.098969 s  ClockTime = 0 s

Time = 43s

smoothSolver:  Solving for Ux, Initial residual = 0.000302235, Final residual = 2.7751e-05, No Iterations 5
smoothSolver:  Solving for Uy, Initial residual = 0.149616, Final residual = 0.00774429, No Iterations 3
Pressure gradient source: uncorrected Ubar = 1.00002, pressure gradient = 0.00972795
GAMG:  Solving for p, Initial residual = 0.0587671, Final residual = 0.00564308, No Iterations 4
time step continuity errors : sum local = 3.59357e-07, global = 7.74267e-18, cumulative = -4.2736e-17
Pressure gradient source: uncorrected Ubar = 1, pressure gradient = 0.00998766
smoothSolver:  Solving for omega, Initial residual = 7.7657e-06, Final residual = 7.7657e-06, No Iterations 0
smoothSolver:  Solving for k, Initial residual = 0.00685951, Final residual = 0.000416759, No Iterations 5
ExecutionTime = 0.101023 s  ClockTime = 0 s

Time = 44s

smoothSolver:  Solving for Ux, Initial residual = 0.0002872, Final residual = 2.65183e-05, No Iterations 5
smoothSolver:  Solving for Uy, Initial residual = 0.125334, Final residual = 0.00707833, No Iterations 3
Pressure gradient source: uncorrected Ubar = 1.00002, pressure gradient = 0.0097302
GAMG:  Solving for p, Initial residual = 0.0582415, Final residual = 0.0043582, No Iterations 3
time step continuity errors : sum local = 2.69387e-07, global = -1.03987e-17, cumulative = -5.31348e-17
Pressure gradient source: uncorrected Ubar = 1, pressure gradient = 0.00996726
smoothSolver:  Solving for omega, Initial residual = 7.76848e-06, Final residual = 7.76848e-06, No Iterations 0
smoothSolver:  Solving for k, Initial residual = 0.00690827, Final residual = 0.000442918, No Iterations 5
ExecutionTime = 0.10326 s  ClockTime = 0 s

Time = 45s

smoothSolver:  Solving for Ux, Initial residual = 0.000274111, Final residual = 2.54764e-05, No Iterations 5
smoothSolver:  Solving for Uy, Initial residual = 0.114651, Final residual = 0.00678104, No Iterations 3
Pressure gradient source: uncorrected Ubar = 1.00001, pressure gradient = 0.00972708
GAMG:  Solving for p, Initial residual = 0.0630971, Final residual = 0.00578552, No Iterations 3
time step continuity errors : sum local = 3.33088e-07, global = -5.41128e-18, cumulative = -5.85461e-17
Pressure gradient source: uncorrected Ubar = 1, pressure gradient = 0.00994826
smoothSolver:  Solving for omega, Initial residual = 7.76983e-06, Final residual = 7.76983e-06, No Iterations 0
smoothSolver:  Solving for k, Initial residual = 0.00686352, Final residual = 0.000608623, No Iterations 4
ExecutionTime = 0.105445 s  ClockTime = 0 s

Time = 46s

smoothSolver:  Solving for Ux, Initial residual = 0.000262303, Final residual = 2.4574e-05, No Iterations 5
smoothSolver:  Solving for Uy, Initial residual = 0.088946, Final residual = 0.00450918, No Iterations 3
Pressure gradient source: uncorrected Ubar = 1.00001, pressure gradient = 0.00972988
GAMG:  Solving for p, Initial residual = 0.0536164, Final residual = 0.00487461, No Iterations 4
time step continuity errors : sum local = 2.72967e-07, global = -3.07895e-18, cumulative = -6.1625e-17
Pressure gradient source: uncorrected Ubar = 1, pressure gradient = 0.00993136
smoothSolver:  Solving for omega, Initial residual = 7.77289e-06, Final residual = 7.77289e-06, No Iterations 0
smoothSolver:  Solving for k, Initial residual = 0.00690143, Final residual = 0.000403815, No Iterations 5
ExecutionTime = 0.10757 s  ClockTime = 0 s

Time = 47s

smoothSolver:  Solving for Ux, Initial residual = 0.000251886, Final residual = 2.38006e-05, No Iterations 5
smoothSolver:  Solving for Uy, Initial residual = 0.115663, Final residual = 0.00723781, No Iterations 3
Pressure gradient source: uncorrected Ubar = 1.00001, pressure gradient = 0.00972522
GAMG:  Solving for p, Initial residual = 0.0533459, Final residual = 0.00482123, No Iterations 3
time step continuity errors : sum local = 2.52611e-07, global = 6.07253e-18, cumulative = -5.55525e-17
Pressure gradient source: uncorrected Ubar = 1, pressure gradient = 0.00991533
smoothSolver:  Solving for omega, Initial residual = 7.77337e-06, Final residual = 7.77337e-06, No Iterations 0
smoothSolver:  Solving for k, Initial residual = 0.00687089, Final residual = 0.000438008, No Iterations 5
ExecutionTime = 0.109563 s  ClockTime = 0 s

Time = 48s

smoothSolver:  Solving for Ux, Initial residual = 0.000242775, Final residual = 2.31927e-05, No Iterations 5
smoothSolver:  Solving for Uy, Initial residual = 0.107772, Final residual = 0.00704933, No Iterations 3
Pressure gradient source: uncorrected Ubar = 1.00001, pressure gradient = 0.00972215
GAMG:  Solving for p, Initial residual = 0.0460085, Final residual = 0.00313116, No Iterations 4
time step continuity errors : sum local = 1.61319e-07, global = -3.13747e-18, cumulative = -5.86899e-17
Pressure gradient source: uncorrected Ubar = 1, pressure gradient = 0.0099003
smoothSolver:  Solving for omega, Initial residual = 7.78258e-06, Final residual = 7.78258e-06, No Iterations 0
smoothSolver:  Solving for k, Initial residual = 0.00691022, Final residual = 0.000448134, No Iterations 5
ExecutionTime = 0.111746 s  ClockTime = 0 s

Time = 49s

smoothSolver:  Solving for Ux, Initial residual = 0.000234527, Final residual = 2.26745e-05, No Iterations 5
smoothSolver:  Solving for Uy, Initial residual = 0.0950766, Final residual = 0.00609686, No Iterations 3
Pressure gradient source: uncorrected Ubar = 1.00001, pressure gradient = 0.00972066
GAMG:  Solving for p, Initial residual = 0.0479711, Final residual = 0.00376398, No Iterations 4
time step continuity errors : sum local = 1.91045e-07, global = -1.91862e-18, cumulative = -6.06086e-17
Pressure gradient source: uncorrected Ubar = 1, pressure gradient = 0.00988643
smoothSolver:  Solving for omega, Initial residual = 7.78382e-06, Final residual = 7.78382e-06, No Iterations 0
smoothSolver:  Solving for k, Initial residual = 0.00693081, Final residual = 0.000412127, No Iterations 5
ExecutionTime = 0.113781 s  ClockTime = 0 s

Time = 50s

smoothSolver:  Solving for Ux, Initial residual = 0.000227048, Final residual = 2.22442e-05, No Iterations 5
smoothSolver:  Solving for Uy, Initial residual = 0.0895933, Final residual = 0.0050175, No Iterations 3
Pressure gradient source: uncorrected Ubar = 1.00001, pressure gradient = 0.0097198
GAMG:  Solving for p, Initial residual = 0.0398979, Final residual = 0.00358593, No Iterations 4
time step continuity errors : sum local = 1.7592e-07, global = -3.40736e-18, cumulative = -6.40159e-17
Pressure gradient source: uncorrected Ubar = 1, pressure gradient = 0.0098737
smoothSolver:  Solving for omega, Initial residual = 7.78634e-06, Final residual = 7.78634e-06, No Iterations 0
smoothSolver:  Solving for k, Initial residual = 0.00690793, Final residual = 0.000467805, No Iterations 5
ExecutionTime = 0.115834 s  ClockTime = 0 s

Time = 51s

smoothSolver:  Solving for Ux, Initial residual = 0.000221034, Final residual = 2.19182e-05, No Iterations 5
smoothSolver:  Solving for Uy, Initial residual = 0.0736104, Final residual = 0.00432147, No Iterations 3
Pressure gradient source: uncorrected Ubar = 1.00001, pressure gradient = 0.0097174
GAMG:  Solving for p, Initial residual = 0.0372909, Final residual = 0.00294443, No Iterations 4
time step continuity errors : sum local = 1.3729e-07, global = 7.55444e-18, cumulative = -5.64615e-17
Pressure gradient source: uncorrected Ubar = 1, pressure gradient = 0.00986179
smoothSolver:  Solving for omega, Initial residual = 7.78906e-06, Final residual = 7.78906e-06, No Iterations 0
smoothSolver:  Solving for k, Initial residual = 0.00686977, Final residual = 0.000403241, No Iterations 5
ExecutionTime = 0.117917 s  ClockTime = 0 s

Time = 52s

smoothSolver:  Solving for Ux, Initial residual = 0.00021569, Final residual = 1.43902e-05, No Iterations 6
smoothSolver:  Solving for Uy, Initial residual = 0.0620804, Final residual = 0.00329734, No Iterations 3
Pressure gradient source: uncorrected Ubar = 1.00001, pressure gradient = 0.00974668
GAMG:  Solving for p, Initial residual = 0.0513007, Final residual = 0.00307616, No Iterations 4
time step continuity errors : sum local = 1.31348e-07, global = 5.69689e-18, cumulative = -5.07646e-17
Pressure gradient source: uncorrected Ubar = 1, pressure gradient = 0.00985339
smoothSolver:  Solving for omega, Initial residual = 7.78453e-06, Final residual = 7.78453e-06, No Iterations 0
smoothSolver:  Solving for k, Initial residual = 0.00693346, Final residual = 0.000494471, No Iterations 5
ExecutionTime = 0.120199 s  ClockTime = 0 s

Time = 53s

smoothSolver:  Solving for Ux, Initial residual = 0.000210856, Final residual = 1.42212e-05, No Iterations 6
smoothSolver:  Solving for Uy, Initial residual = 0.17214, Final residual = 0.0091546, No Iterations 3
Pressure gradient source: uncorrected Ubar = 1.00001, pressure gradient = 0.00973192
GAMG:  Solving for p, Initial residual = 0.0517784, Final residual = 0.00500744, No Iterations 5
time step continuity errors : sum local = 2.05868e-07, global = 5.91935e-18, cumulative = -4.48452e-17
Pressure gradient source: uncorrected Ubar = 1, pressure gradient = 0.00984377
smoothSolver:  Solving for omega, Initial residual = 7.78431e-06, Final residual = 7.78431e-06, No Iterations 0
smoothSolver:  Solving for k, Initial residual = 0.00693002, Final residual = 0.000497357, No Iterations 5
ExecutionTime = 0.122434 s  ClockTime = 0 s

Time = 54s

smoothSolver:  Solving for Ux, Initial residual = 0.000206806, Final residual = 1.40672e-05, No Iterations 6
smoothSolver:  Solving for Uy, Initial residual = 0.22887, Final residual = 0.01197, No Iterations 3
Pressure gradient source: uncorrected Ubar = 1.00001, pressure gradient = 0.00972821
GAMG:  Solving for p, Initial residual = 0.0549266, Final residual = 0.00412108, No Iterations 5
time step continuity errors : sum local = 1.46171e-07, global = 4.88529e-18, cumulative = -3.99599e-17
Pressure gradient source: uncorrected Ubar = 1, pressure gradient = 0.00983458
smoothSolver:  Solving for omega, Initial residual = 7.7845e-06, Final residual = 7.7845e-06, No Iterations 0
smoothSolver:  Solving for k, Initial residual = 0.00692038, Final residual = 0.000457203, No Iterations 5
ExecutionTime = 0.124567 s  ClockTime = 0 s

Time = 55s

smoothSolver:  Solving for Ux, Initial residual = 0.00020307, Final residual = 1.39095e-05, No Iterations 6
smoothSolver:  Solving for Uy, Initial residual = 0.202699, Final residual = 0.0113065, No Iterations 3
Pressure gradient source: uncorrected Ubar = 1.00001, pressure gradient = 0.0097254
GAMG:  Solving for p, Initial residual = 0.0559723, Final residual = 0.00375493, No Iterations 5
time step continuity errors : sum local = 1.18709e-07, global = 6.6871e-18, cumulative = -3.32729e-17
Pressure gradient source: uncorrected Ubar = 1, pressure gradient = 0.0098259
smoothSolver:  Solving for omega, Initial residual = 7.78441e-06, Final residual = 7.78441e-06, No Iterations 0
smoothSolver:  Solving for k, Initial residual = 0.00688381, Final residual = 0.000440967, No Iterations 5
ExecutionTime = 0.126679 s  ClockTime = 0 s

Time = 56s

smoothSolver:  Solving for Ux, Initial residual = 0.000199306, Final residual = 1.37315e-05, No Iterations 6
smoothSolver:  Solving for Uy, Initial residual = 0.169278, Final residual = 0.00977541, No Iterations 3
Pressure gradient source: uncorrected Ubar = 1.00001, pressure gradient = 0.00972312
GAMG:  Solving for p, Initial residual = 0.0457078, Final residual = 0.0027646, No Iterations 5
time step continuity errors : sum local = 8.37674e-08, global = -6.03573e-18, cumulative = -3.93086e-17
Pressure gradient source: uncorrected Ubar = 1, pressure gradient = 0.00981776
smoothSolver:  Solving for omega, Initial residual = 7.7827e-06, Final residual = 7.7827e-06, No Iterations 0
smoothSolver:  Solving for k, Initial residual = 0.00685993, Final residual = 0.000455221, No Iterations 5
ExecutionTime = 0.128781 s  ClockTime = 0 s

Time = 57s

smoothSolver:  Solving for Ux, Initial residual = 0.000195611, Final residual = 1.35397e-05, No Iterations 6
smoothSolver:  Solving for Uy, Initial residual = 0.132539, Final residual = 0.0072584, No Iterations 3
Pressure gradient source: uncorrected Ubar = 1.00001, pressure gradient = 0.00972011
GAMG:  Solving for p, Initial residual = 0.0466554, Final residual = 0.00362383, No Iterations 4
time step continuity errors : sum local = 9.73858e-08, global = 1.82551e-18, cumulative = -3.74831e-17
Pressure gradient source: uncorrected Ubar = 1, pressure gradient = 0.00981001
smoothSolver:  Solving for omega, Initial residual = 7.78035e-06, Final residual = 7.78035e-06, No Iterations 0
smoothSolver:  Solving for k, Initial residual = 0.00691955, Final residual = 0.000530443, No Iterations 5
ExecutionTime = 0.130792 s  ClockTime = 0 s

Time = 58s

smoothSolver:  Solving for Ux, Initial residual = 0.000192035, Final residual = 1.33604e-05, No Iterations 6
smoothSolver:  Solving for Uy, Initial residual = 0.103816, Final residual = 0.00638765, No Iterations 3
Pressure gradient source: uncorrected Ubar = 1.00001, pressure gradient = 0.00971696
GAMG:  Solving for p, Initial residual = 0.0413824, Final residual = 0.00390001, No Iterations 3
time step continuity errors : sum local = 9.85498e-08, global = -7.87426e-18, cumulative = -4.53573e-17
Pressure gradient source: uncorrected Ubar = 1, pressure gradient = 0.0098026
smoothSolver:  Solving for omega, Initial residual = 7.77681e-06, Final residual = 7.77681e-06, No Iterations 0
smoothSolver:  Solving for k, Initial residual = 0.00689651, Final residual = 0.000457713, No Iterations 5
ExecutionTime = 0.132809 s  ClockTime = 0 s

Time = 59s

smoothSolver:  Solving for Ux, Initial residual = 0.000188448, Final residual = 1.31731e-05, No Iterations 6
smoothSolver:  Solving for Uy, Initial residual = 0.0900136, Final residual = 0.00537276, No Iterations 3
Pressure gradient source: uncorrected Ubar = 1.00001, pressure gradient = 0.00971524
GAMG:  Solving for p, Initial residual = 0.0354038, Final residual = 0.00344459, No Iterations 3
time step continuity errors : sum local = 8.20294e-08, global = 6.12415e-18, cumulative = -3.92332e-17
Pressure gradient source: uncorrected Ubar = 1, pressure gradient = 0.0097957
smoothSolver:  Solving for omega, Initial residual = 7.77e-06, Final residual = 7.77e-06, No Iterations 0
smoothSolver:  Solving for k, Initial residual = 0.00688748, Final residual = 0.000458518, No Iterations 5
ExecutionTime = 0.134939 s  ClockTime = 0 s

Time = 60s

smoothSolver:  Solving for Ux, Initial residual = 0.000184995, Final residual = 1.29849e-05, No Iterations 6
smoothSolver:  Solving for Uy, Initial residual = 0.0910385, Final residual = 0.00478554, No Iterations 3
Pressure gradient source: uncorrected Ubar = 1.00001, pressure gradient = 0.00971297
GAMG:  Solving for p, Initial residual = 0.042145, Final residual = 0.00336356, No Iterations 3
time step continuity errors : sum local = 7.27465e-08, global = 7.56057e-18, cumulative = -3.16726e-17
Pressure gradient source: uncorrected Ubar = 1, pressure gradient = 0.00978917
smoothSolver:  Solving for omega, Initial residual = 7.76902e-06, Final residual = 7.76902e-06, No Iterations 0
smoothSolver:  Solving for k, Initial residual = 0.0068737, Final residual = 0.00042345, No Iterations 5
ExecutionTime = 0.137043 s  ClockTime = 0 s

Time = 61s

smoothSolver:  Solving for Ux, Initial residual = 0.000181405, Final residual = 1.27856e-05, No Iterations 6
smoothSolver:  Solving for Uy, Initial residual = 0.0969558, Final residual = 0.00466247, No Iterations 3
Pressure gradient source: uncorrected Ubar = 1, pressure gradient = 0.00971141
GAMG:  Solving for p, Initial residual = 0.0370827, Final residual = 0.00324187, No Iterations 4
time step continuity errors : sum local = 6.69474e-08, global = -7.39203e-18, cumulative = -3.90646e-17
Pressure gradient source: uncorrected Ubar = 1, pressure gradient = 0.00978308
smoothSolver:  Solving for omega, Initial residual = 7.76604e-06, Final residual = 7.76604e-06, No Iterations 0
smoothSolver:  Solving for k, Initial residual = 0.00681958, Final residual = 0.000671177, No Iterations 4
ExecutionTime = 0.139241 s  ClockTime = 0 s

Time = 62s

smoothSolver:  Solving for Ux, Initial residual = 0.000177846, Final residual = 1.25805e-05, No Iterations 6
smoothSolver:  Solving for Uy, Initial residual = 0.0811889, Final residual = 0.00371445, No Iterations 3
Pressure gradient source: uncorrected Ubar = 1, pressure gradient = 0.0097098
GAMG:  Solving for p, Initial residual = 0.0356444, Final residual = 0.00178573, No Iterations 5
time step continuity errors : sum local = 3.61386e-08, global = 1.46061e-19, cumulative = -3.89186e-17
Pressure gradient source: uncorrected Ubar = 1, pressure gradient = 0.00977738
smoothSolver:  Solving for omega, Initial residual = 7.7673e-06, Final residual = 7.7673e-06, No Iterations 0
smoothSolver:  Solving for k, Initial residual = 0.00685653, Final residual = 0.000465855, No Iterations 5
ExecutionTime = 0.14141 s  ClockTime = 0 s

Time = 63s

smoothSolver:  Solving for Ux, Initial residual = 0.00017438, Final residual = 1.23825e-05, No Iterations 6
smoothSolver:  Solving for Uy, Initial residual = 0.0734231, Final residual = 0.00427642, No Iterations 3
Pressure gradient source: uncorrected Ubar = 1, pressure gradient = 0.00970654
GAMG:  Solving for p, Initial residual = 0.0297596, Final residual = 0.00293766, No Iterations 4
time step continuity errors : sum local = 5.58854e-08, global = -2.11157e-18, cumulative = -4.10302e-17
Pressure gradient source: uncorrected Ubar = 1, pressure gradient = 0.00977181
smoothSolver:  Solving for omega, Initial residual = 7.76712e-06, Final residual = 7.76712e-06, No Iterations 0
smoothSolver:  Solving for k, Initial residual = 0.00685385, Final residual = 0.000484735, No Iterations 5
ExecutionTime = 0.143472 s  ClockTime = 0 s

Time = 64s

smoothSolver:  Solving for Ux, Initial residual = 0.000170935, Final residual = 1.21811e-05, No Iterations 6
smoothSolver:  Solving for Uy, Initial residual = 0.0608454, Final residual = 0.00393003, No Iterations 3
Pressure gradient source: uncorrected Ubar = 1, pressure gradient = 0.00970455
GAMG:  Solving for p, Initial residual = 0.0269825, Final residual = 0.00205992, No Iterations 4
time step continuity errors : sum local = 3.86557e-08, global = -4.73979e-18, cumulative = -4.57699e-17
Pressure gradient source: uncorrected Ubar = 1, pressure gradient = 0.00976653
smoothSolver:  Solving for omega, Initial residual = 7.7659e-06, Final residual = 7.7659e-06, No Iterations 0
smoothSolver:  Solving for k, Initial residual = 0.00687203, Final residual = 0.000549428, No Iterations 5
ExecutionTime = 0.145512 s  ClockTime = 0 s

Time = 65s

smoothSolver:  Solving for Ux, Initial residual = 0.000167482, Final residual = 1.19739e-05, No Iterations 6
smoothSolver:  Solving for Uy, Initial residual = 0.0464355, Final residual = 0.00254497, No Iterations 3
Pressure gradient source: uncorrected Ubar = 1, pressure gradient = 0.00970258
GAMG:  Solving for p, Initial residual = 0.0239156, Final residual = 0.00189032, No Iterations 3
time step continuity errors : sum local = 3.40516e-08, global = -2.60507e-19, cumulative = -4.60304e-17
Pressure gradient source: uncorrected Ubar = 1, pressure gradient = 0.00976153
smoothSolver:  Solving for omega, Initial residual = 7.76497e-06, Final residual = 7.76497e-06, No Iterations 0
smoothSolver:  Solving for k, Initial residual = 0.00679572, Final residual = 0.000436187, No Iterations 5
ExecutionTime = 0.1474 s  ClockTime = 0 s

Time = 66s

smoothSolver:  Solving for Ux, Initial residual = 0.000164048, Final residual = 1.17568e-05, No Iterations 6
smoothSolver:  Solving for Uy, Initial residual = 0.0522393, Final residual = 0.00314833, No Iterations 3
Pressure gradient source: uncorrected Ubar = 1, pressure gradient = 0.00970164
GAMG:  Solving for p, Initial residual = 0.0281714, Final residual = 0.0016941, No Iterations 5
time step continuity errors : sum local = 2.91766e-08, global = -4.9029e-18, cumulative = -5.09333e-17
Pressure gradient source: uncorrected Ubar = 1, pressure gradient = 0.0097569
smoothSolver:  Solving for omega, Initial residual = 7.762e-06, Final residual = 7.762e-06, No Iterations 0
smoothSolver:  Solving for k, Initial residual = 0.00677467, Final residual = 0.000396371, No Iterations 5
ExecutionTime = 0.149622 s  ClockTime = 0 s

Time = 67s

smoothSolver:  Solving for Ux, Initial residual = 0.000160751, Final residual = 1.1544e-05, No Iterations 6
smoothSolver:  Solving for Uy, Initial residual = 0.0455689, Final residual = 0.00262239, No Iterations 3
Pressure gradient source: uncorrected Ubar = 1, pressure gradient = 0.0096998
GAMG:  Solving for p, Initial residual = 0.0260624, Final residual = 0.00145844, No Iterations 5
time step continuity errors : sum local = 2.6516e-08, global = 1.35461e-18, cumulative = -4.95787e-17
Pressure gradient source: uncorrected Ubar = 1, pressure gradient = 0.0097525
smoothSolver:  Solving for omega, Initial residual = 7.76759e-06, Final residual = 7.76759e-06, No Iterations 0
smoothSolver:  Solving for k, Initial residual = 0.00680338, Final residual = 0.000462862, No Iterations 5
ExecutionTime = 0.151704 s  ClockTime = 0 s

Time = 68s

smoothSolver:  Solving for Ux, Initial residual = 0.000157448, Final residual = 1.13337e-05, No Iterations 6
smoothSolver:  Solving for Uy, Initial residual = 0.0396891, Final residual = 0.00237891, No Iterations 3
Pressure gradient source: uncorrected Ubar = 1, pressure gradient = 0.00969788
GAMG:  Solving for p, Initial residual = 0.0206989, Final residual = 0.00127537, No Iterations 3
time step continuity errors : sum local = 2.22382e-08, global = -4.96594e-18, cumulative = -5.45447e-17
Pressure gradient source: uncorrected Ubar = 1, pressure gradient = 0.00974829
smoothSolver:  Solving for omega, Initial residual = 7.76366e-06, Final residual = 7.76366e-06, No Iterations 0
smoothSolver:  Solving for k, Initial residual = 0.00678849, Final residual = 0.000487851, No Iterations 5
ExecutionTime = 0.153807 s  ClockTime = 0 s

Time = 69s

smoothSolver:  Solving for Ux, Initial residual = 0.000154173, Final residual = 1.11227e-05, No Iterations 6
smoothSolver:  Solving for Uy, Initial residual = 0.033895, Final residual = 0.00182821, No Iterations 3
Pressure gradient source: uncorrected Ubar = 1, pressure gradient = 0.00969617
GAMG:  Solving for p, Initial residual = 0.0157067, Final residual = 0.0012736, No Iterations 3
time step continuity errors : sum local = 2.09507e-08, global = -6.24152e-18, cumulative = -6.07862e-17
Pressure gradient source: uncorrected Ubar = 1, pressure gradient = 0.00974428
smoothSolver:  Solving for omega, Initial residual = 7.76258e-06, Final residual = 7.76258e-06, No Iterations 0
smoothSolver:  Solving for k, Initial residual = 0.00679635, Final residual = 0.000491806, No Iterations 5
ExecutionTime = 0.155943 s  ClockTime = 0 s

Time = 70s

smoothSolver:  Solving for Ux, Initial residual = 0.000150893, Final residual = 1.09081e-05, No Iterations 6
smoothSolver:  Solving for Uy, Initial residual = 0.0392193, Final residual = 0.002298, No Iterations 3
Pressure gradient source: uncorrected Ubar = 1, pressure gradient = 0.00969472
GAMG:  Solving for p, Initial residual = 0.0165182, Final residual = 0.00111128, No Iterations 5
time step continuity errors : sum local = 1.88934e-08, global = 3.23822e-18, cumulative = -5.7548e-17
Pressure gradient source: uncorrected Ubar = 1, pressure gradient = 0.00974048
smoothSolver:  Solving for omega, Initial residual = 7.7565e-06, Final residual = 7.7565e-06, No Iterations 0
smoothSolver:  Solving for k, Initial residual = 0.00675812, Final residual = 0.000461491, No Iterations 5
ExecutionTime = 0.158068 s  ClockTime = 0 s

Time = 71s

smoothSolver:  Solving for Ux, Initial residual = 0.000147629, Final residual = 1.06951e-05, No Iterations 6
smoothSolver:  Solving for Uy, Initial residual = 0.040848, Final residual = 0.00235225, No Iterations 3
Pressure gradient source: uncorrected Ubar = 1, pressure gradient = 0.00969299
GAMG:  Solving for p, Initial residual = 0.0166568, Final residual = 0.00123831, No Iterations 5
time step continuity errors : sum local = 2.0252e-08, global = 4.45338e-18, cumulative = -5.30946e-17
Pressure gradient source: uncorrected Ubar = 1, pressure gradient = 0.00973684
smoothSolver:  Solving for omega, Initial residual = 7.75183e-06, Final residual = 7.75183e-06, No Iterations 0
smoothSolver:  Solving for k, Initial residual = 0.006801, Final residual = 0.000523573, No Iterations 5
ExecutionTime = 0.160133 s  ClockTime = 0 s

Time = 72s

smoothSolver:  Solving for Ux, Initial residual = 0.000144391, Final residual = 1.04815e-05, No Iterations 6
smoothSolver:  Solving for Uy, Initial residual = 0.0475861, Final residual = 0.00273969, No Iterations 3
Pressure gradient source: uncorrected Ubar = 1, pressure gradient = 0.00969161
GAMG:  Solving for p, Initial residual = 0.0180667, Final residual = 0.00145667, No Iterations 5
time step continuity errors : sum local = 2.2876e-08, global = -1.89721e-18, cumulative = -5.49918e-17
Pressure gradient source: uncorrected Ubar = 1, pressure gradient = 0.00973339
smoothSolver:  Solving for omega, Initial residual = 7.75008e-06, Final residual = 7.75008e-06, No Iterations 0
smoothSolver:  Solving for k, Initial residual = 0.00674704, Final residual = 0.000412472, No Iterations 5
ExecutionTime = 0.162185 s  ClockTime = 0 s

Time = 73s

smoothSolver:  Solving for Ux, Initial residual = 0.000141241, Final residual = 1.02689e-05, No Iterations 6
smoothSolver:  Solving for Uy, Initial residual = 0.0394813, Final residual = 0.00213113, No Iterations 3
Pressure gradient source: uncorrected Ubar = 1, pressure gradient = 0.00969041
GAMG:  Solving for p, Initial residual = 0.0206404, Final residual = 0.00177282, No Iterations 4
time step continuity errors : sum local = 2.89108e-08, global = -2.18846e-18, cumulative = -5.71803e-17
Pressure gradient source: uncorrected Ubar = 1, pressure gradient = 0.00973014
smoothSolver:  Solving for omega, Initial residual = 7.75079e-06, Final residual = 7.75079e-06, No Iterations 0
smoothSolver:  Solving for k, Initial residual = 0.0067443, Final residual = 0.000421024, No Iterations 5
ExecutionTime = 0.164356 s  ClockTime = 0 s

Time = 74s

smoothSolver:  Solving for Ux, Initial residual = 0.000138096, Final residual = 1.00583e-05, No Iterations 6
smoothSolver:  Solving for Uy, Initial residual = 0.0421867, Final residual = 0.00259742, No Iterations 3
Pressure gradient source: uncorrected Ubar = 1, pressure gradient = 0.00968891
GAMG:  Solving for p, Initial residual = 0.0149816, Final residual = 0.00126885, No Iterations 5
time step continuity errors : sum local = 1.90688e-08, global = -5.87196e-18, cumulative = -6.30522e-17
Pressure gradient source: uncorrected Ubar = 1, pressure gradient = 0.00972702
smoothSolver:  Solving for omega, Initial residual = 7.74413e-06, Final residual = 7.74413e-06, No Iterations 0
smoothSolver:  Solving for k, Initial residual = 0.00672251, Final residual = 0.000470831, No Iterations 5
ExecutionTime = 0.16643 s  ClockTime = 0 s

Time = 75s

smoothSolver:  Solving for Ux, Initial residual = 0.000135006, Final residual = 9.84888e-06, No Iterations 6
smoothSolver:  Solving for Uy, Initial residual = 0.0349674, Final residual = 0.00198973, No Iterations 3
Pressure gradient source: uncorrected Ubar = 1, pressure gradient = 0.00968733
GAMG:  Solving for p, Initial residual = 0.0167064, Final residual = 0.0014968, No Iterations 5
time step continuity errors : sum local = 2.18178e-08, global = 9.21044e-19, cumulative = -6.21312e-17
Pressure gradient source: uncorrected Ubar = 1, pressure gradient = 0.00972401
smoothSolver:  Solving for omega, Initial residual = 7.74348e-06, Final residual = 7.74348e-06, No Iterations 0
smoothSolver:  Solving for k, Initial residual = 0.00671111, Final residual = 0.000419026, No Iterations 5
ExecutionTime = 0.168526 s  ClockTime = 0 s

Time = 76s

smoothSolver:  Solving for Ux, Initial residual = 0.000131966, Final residual = 9.64013e-06, No Iterations 6
smoothSolver:  Solving for Uy, Initial residual = 0.0354401, Final residual = 0.00203362, No Iterations 3
Pressure gradient source: uncorrected Ubar = 1, pressure gradient = 0.00968619
GAMG:  Solving for p, Initial residual = 0.0152155, Final residual = 0.000819828, No Iterations 6
time step continuity errors : sum local = 1.20124e-08, global = -5.16722e-18, cumulative = -6.72984e-17
Pressure gradient source: uncorrected Ubar = 1, pressure gradient = 0.00972117
smoothSolver:  Solving for omega, Initial residual = 7.74761e-06, Final residual = 7.74761e-06, No Iterations 0
smoothSolver:  Solving for k, Initial residual = 0.00672532, Final residual = 0.000506672, No Iterations 5
ExecutionTime = 0.170795 s  ClockTime = 0 s

Time = 77s

smoothSolver:  Solving for Ux, Initial residual = 0.000128953, Final residual = 9.43484e-06, No Iterations 6
smoothSolver:  Solving for Uy, Initial residual = 0.0313755, Final residual = 0.00170581, No Iterations 3
Pressure gradient source: uncorrected Ubar = 1, pressure gradient = 0.00968464
GAMG:  Solving for p, Initial residual = 0.014549, Final residual = 0.00124612, No Iterations 5
time step continuity errors : sum local = 1.81127e-08, global = 1.23358e-17, cumulative = -5.49626e-17
Pressure gradient source: uncorrected Ubar = 1, pressure gradient = 0.00971841
smoothSolver:  Solving for omega, Initial residual = 7.74079e-06, Final residual = 7.74079e-06, No Iterations 0
smoothSolver:  Solving for k, Initial residual = 0.00666639, Final residual = 0.000473734, No Iterations 5
ExecutionTime = 0.173062 s  ClockTime = 0 s

Time = 78s

smoothSolver:  Solving for Ux, Initial residual = 0.00012604, Final residual = 9.23324e-06, No Iterations 6
smoothSolver:  Solving for Uy, Initial residual = 0.0338128, Final residual = 0.00199913, No Iterations 3
Pressure gradient source: uncorrected Ubar = 1, pressure gradient = 0.00968334
GAMG:  Solving for p, Initial residual = 0.0141055, Final residual = 0.00110269, No Iterations 5
time step continuity errors : sum local = 1.51306e-08, global = 3.9842e-18, cumulative = -5.09784e-17
Pressure gradient source: uncorrected Ubar = 1, pressure gradient = 0.00971577
smoothSolver:  Solving for omega, Initial residual = 7.74087e-06, Final residual = 7.74087e-06, No Iterations 0
smoothSolver:  Solving for k, Initial residual = 0.00667465, Final residual = 0.000407862, No Iterations 5
ExecutionTime = 0.175147 s  ClockTime = 0 s

Time = 79s

smoothSolver:  Solving for Ux, Initial residual = 0.000123141, Final residual = 9.03125e-06, No Iterations 6
smoothSolver:  Solving for Uy, Initial residual = 0.0350967, Final residual = 0.00196612, No Iterations 3
Pressure gradient source: uncorrected Ubar = 1, pressure gradient = 0.0096823
GAMG:  Solving for p, Initial residual = 0.0128672, Final residual = 0.000713289, No Iterations 6
time step continuity errors : sum local = 9.76763e-09, global = 9.85693e-19, cumulative = -4.99928e-17
Pressure gradient source: uncorrected Ubar = 1, pressure gradient = 0.00971327
smoothSolver:  Solving for omega, Initial residual = 7.73977e-06, Final residual = 7.73977e-06, No Iterations 0
smoothSolver:  Solving for k, Initial residual = 0.00668092, Final residual = 0.000460001, No Iterations 5
ExecutionTime = 0.17726 s  ClockTime = 0 s

Time = 80s

smoothSolver:  Solving for Ux, Initial residual = 0.000120329, Final residual = 8.83108e-06, No Iterations 6
smoothSolver:  Solving for Uy, Initial residual = 0.0377594, Final residual = 0.002114, No Iterations 3
Pressure gradient source: uncorrected Ubar = 1, pressure gradient = 0.00968106
GAMG:  Solving for p, Initial residual = 0.0113356, Final residual = 0.000715549, No Iterations 6
time step continuity errors : sum local = 9.55899e-09, global = -9.16728e-18, cumulative = -5.916e-17
Pressure gradient source: uncorrected Ubar = 1, pressure gradient = 0.00971086
smoothSolver:  Solving for omega, Initial residual = 7.73664e-06, Final residual = 7.73664e-06, No Iterations 0
smoothSolver:  Solving for k, Initial residual = 0.00665688, Final residual = 0.000476578, No Iterations 5
ExecutionTime = 0.179482 s  ClockTime = 0 s

Time = 81s

smoothSolver:  Solving for Ux, Initial residual = 0.000117575, Final residual = 8.63621e-06, No Iterations 6
smoothSolver:  Solving for Uy, Initial residual = 0.0335251, Final residual = 0.00200688, No Iterations 3
Pressure gradient source: uncorrected Ubar = 1, pressure gradient = 0.00967972
GAMG:  Solving for p, Initial residual = 0.0100422, Final residual = 0.00068412, No Iterations 6
time step continuity errors : sum local = 8.60166e-09, global = 6.2856e-18, cumulative = -5.28744e-17
Pressure gradient source: uncorrected Ubar = 1, pressure gradient = 0.00970852
smoothSolver:  Solving for omega, Initial residual = 7.73425e-06, Final residual = 7.73425e-06, No Iterations 0
smoothSolver:  Solving for k, Initial residual = 0.00660832, Final residual = 0.000413339, No Iterations 5
ExecutionTime = 0.181606 s  ClockTime = 0 s

Time = 82s

smoothSolver:  Solving for Ux, Initial residual = 0.000114839, Final residual = 8.44186e-06, No Iterations 6
smoothSolver:  Solving for Uy, Initial residual = 0.0363709, Final residual = 0.00206373, No Iterations 3
Pressure gradient source: uncorrected Ubar = 1, pressure gradient = 0.00967875
GAMG:  Solving for p, Initial residual = 0.0143632, Final residual = 0.00123949, No Iterations 5
time step continuity errors : sum local = 1.49249e-08, global = 4.0801e-18, cumulative = -4.87943e-17
Pressure gradient source: uncorrected Ubar = 1, pressure gradient = 0.00970631
smoothSolver:  Solving for omega, Initial residual = 7.7353e-06, Final residual = 7.7353e-06, No Iterations 0
smoothSolver:  Solving for k, Initial residual = 0.00662397, Final residual = 0.000404805, No Iterations 5
ExecutionTime = 0.183672 s  ClockTime = 0 s

Time = 83s

smoothSolver:  Solving for Ux, Initial residual = 0.000112138, Final residual = 8.24955e-06, No Iterations 6
smoothSolver:  Solving for Uy, Initial residual = 0.0327934, Final residual = 0.00176234, No Iterations 3
Pressure gradient source: uncorrected Ubar = 1, pressure gradient = 0.00967765
GAMG:  Solving for p, Initial residual = 0.0127521, Final residual = 0.00120558, No Iterations 5
time step continuity errors : sum local = 1.51553e-08, global = 1.25566e-18, cumulative = -4.75387e-17
Pressure gradient source: uncorrected Ubar = 1, pressure gradient = 0.00970418
smoothSolver:  Solving for omega, Initial residual = 7.73479e-06, Final residual = 7.73479e-06, No Iterations 0
smoothSolver:  Solving for k, Initial residual = 0.00663653, Final residual = 0.00045143, No Iterations 5
ExecutionTime = 0.18593 s  ClockTime = 0 s

Time = 84s

smoothSolver:  Solving for Ux, Initial residual = 0.000109526, Final residual = 8.06221e-06, No Iterations 6
smoothSolver:  Solving for Uy, Initial residual = 0.0320372, Final residual = 0.00175369, No Iterations 3
Pressure gradient source: uncorrected Ubar = 1, pressure gradient = 0.0096765
GAMG:  Solving for p, Initial residual = 0.011963, Final residual = 0.000813676, No Iterations 6
time step continuity errors : sum local = 9.46523e-09, global = -1.47187e-17, cumulative = -6.22574e-17
Pressure gradient source: uncorrected Ubar = 1, pressure gradient = 0.00970212
smoothSolver:  Solving for omega, Initial residual = 7.72868e-06, Final residual = 7.72868e-06, No Iterations 0
smoothSolver:  Solving for k, Initial residual = 0.00657504, Final residual = 0.000400206, No Iterations 5
ExecutionTime = 0.188177 s  ClockTime = 0 s

Time = 85s

smoothSolver:  Solving for Ux, Initial residual = 0.000106945, Final residual = 7.87734e-06, No Iterations 6
smoothSolver:  Solving for Uy, Initial residual = 0.0334601, Final residual = 0.00184582, No Iterations 3
Pressure gradient source: uncorrected Ubar = 1, pressure gradient = 0.00967552
GAMG:  Solving for p, Initial residual = 0.0133493, Final residual = 0.000851688, No Iterations 6
time step continuity errors : sum local = 9.81322e-09, global = -2.79598e-18, cumulative = -6.50533e-17
Pressure gradient source: uncorrected Ubar = 1, pressure gradient = 0.00970016
smoothSolver:  Solving for omega, Initial residual = 7.72385e-06, Final residual = 7.72385e-06, No Iterations 0
smoothSolver:  Solving for k, Initial residual = 0.00657624, Final residual = 0.000470329, No Iterations 5
ExecutionTime = 0.190399 s  ClockTime = 0 s

Time = 86s

smoothSolver:  Solving for Ux, Initial residual = 0.000104411, Final residual = 7.6962e-06, No Iterations 6
smoothSolver:  Solving for Uy, Initial residual = 0.0296701, Final residual = 0.00172072, No Iterations 3
Pressure gradient source: uncorrected Ubar = 1, pressure gradient = 0.0096744
GAMG:  Solving for p, Initial residual = 0.011629, Final residual = 0.000808147, No Iterations 6
time step continuity errors : sum local = 8.99081e-09, global = 1.01763e-17, cumulative = -5.48771e-17
Pressure gradient source: uncorrected Ubar = 1, pressure gradient = 0.00969825
smoothSolver:  Solving for omega, Initial residual = 7.727e-06, Final residual = 7.727e-06, No Iterations 0
smoothSolver:  Solving for k, Initial residual = 0.00660009, Final residual = 0.000448194, No Iterations 5
ExecutionTime = 0.192539 s  ClockTime = 0 s

Time = 87s

smoothSolver:  Solving for Ux, Initial residual = 0.000101923, Final residual = 7.51783e-06, No Iterations 6
smoothSolver:  Solving for Uy, Initial residual = 0.0308579, Final residual = 0.00167044, No Iterations 3
Pressure gradient source: uncorrected Ubar = 1, pressure gradient = 0.00967345
GAMG:  Solving for p, Initial residual = 0.0115578, Final residual = 0.000708358, No Iterations 6
time step continuity errors : sum local = 8.03777e-09, global = 7.36735e-18, cumulative = -4.75097e-17
Pressure gradient source: uncorrected Ubar = 1, pressure gradient = 0.00969642
smoothSolver:  Solving for omega, Initial residual = 7.72897e-06, Final residual = 7.72897e-06, No Iterations 0
smoothSolver:  Solving for k, Initial residual = 0.00659751, Final residual = 0.000479232, No Iterations 5
ExecutionTime = 0.194736 s  ClockTime = 0 s

Time = 88s

smoothSolver:  Solving for Ux, Initial residual = 9.9492e-05, Final residual = 7.34337e-06, No Iterations 6
smoothSolver:  Solving for Uy, Initial residual = 0.0338354, Final residual = 0.00189372, No Iterations 3
Pressure gradient source: uncorrected Ubar = 1, pressure gradient = 0.00967244
GAMG:  Solving for p, Initial residual = 0.0113052, Final residual = 0.000727612, No Iterations 6
time step continuity errors : sum local = 8.06892e-09, global = -4.08027e-18, cumulative = -5.159e-17
Pressure gradient source: uncorrected Ubar = 1, pressure gradient = 0.00969464
smoothSolver:  Solving for omega, Initial residual = 7.72812e-06, Final residual = 7.72812e-06, No Iterations 0
smoothSolver:  Solving for k, Initial residual = 0.00657957, Final residual = 0.000461074, No Iterations 5
ExecutionTime = 0.196865 s  ClockTime = 0 s

Time = 89s

smoothSolver:  Solving for Ux, Initial residual = 9.71063e-05, Final residual = 7.17109e-06, No Iterations 6
smoothSolver:  Solving for Uy, Initial residual = 0.031464, Final residual = 0.0017718, No Iterations 3
Pressure gradient source: uncorrected Ubar = 1, pressure gradient = 0.00967154
GAMG:  Solving for p, Initial residual = 0.0123094, Final residual = 0.0008364, No Iterations 6
time step continuity errors : sum local = 8.65558e-09, global = -1.04094e-17, cumulative = -6.19994e-17
Pressure gradient source: uncorrected Ubar = 1, pressure gradient = 0.00969294
smoothSolver:  Solving for omega, Initial residual = 7.72088e-06, Final residual = 7.72088e-06, No Iterations 0
smoothSolver:  Solving for k, Initial residual = 0.00653889, Final residual = 0.00045718, No Iterations 5
[...]
time step continuity errors : sum local = 4.1411e-08, global = 5.70202e-18, cumulative = -1.27396e-16
Pressure gradient source: uncorrected Ubar = 1, pressure gradient = 0.0103113
smoothSolver:  Solving for omega, Initial residual = 4.4143e-06, Final residual = 4.4143e-06, No Iterations 0
smoothSolver:  Solving for k, Initial residual = 5.77638e-05, Final residual = 6.34866e-06, No Iterations 4
ExecutionTime = 2.82988 s  ClockTime = 3 s

Time = 1296s

smoothSolver:  Solving for Ux, Initial residual = 1.00592e-05, Final residual = 6.31737e-06, No Iterations 1
smoothSolver:  Solving for Uy, Initial residual = 0.323678, Final residual = 0.0185692, No Iterations 3
Pressure gradient source: uncorrected Ubar = 1, pressure gradient = 0.0103126
GAMG:  Solving for p, Initial residual = 0.118934, Final residual = 0.0106338, No Iterations 5
time step continuity errors : sum local = 5.05012e-08, global = 3.1172e-18, cumulative = -1.24279e-16
Pressure gradient source: uncorrected Ubar = 1, pressure gradient = 0.0103112
smoothSolver:  Solving for omega, Initial residual = 4.41413e-06, Final residual = 4.41413e-06, No Iterations 0
smoothSolver:  Solving for k, Initial residual = 5.74343e-05, Final residual = 7.69989e-06, No Iterations 4
ExecutionTime = 2.83192 s  ClockTime = 3 s

Time = 1297s

smoothSolver:  Solving for Ux, Initial residual = 1.00937e-05, Final residual = 6.32333e-06, No Iterations 1
smoothSolver:  Solving for Uy, Initial residual = 0.235135, Final residual = 0.0146773, No Iterations 3
Pressure gradient source: uncorrected Ubar = 1, pressure gradient = 0.0103121
GAMG:  Solving for p, Initial residual = 0.0781944, Final residual = 0.00544308, No Iterations 6
time step continuity errors : sum local = 3.19188e-08, global = -2.62108e-18, cumulative = -1.269e-16
Pressure gradient source: uncorrected Ubar = 1, pressure gradient = 0.0103111
smoothSolver:  Solving for omega, Initial residual = 4.41398e-06, Final residual = 4.41398e-06, No Iterations 0
smoothSolver:  Solving for k, Initial residual = 5.70599e-05, Final residual = 7.90332e-06, No Iterations 4
ExecutionTime = 2.83408 s  ClockTime = 3 s

Time = 1298s

smoothSolver:  Solving for Ux, Initial residual = 1.01527e-05, Final residual = 6.36091e-06, No Iterations 1
smoothSolver:  Solving for Uy, Initial residual = 0.154125, Final residual = 0.0114722, No Iterations 3
Pressure gradient source: uncorrected Ubar = 1, pressure gradient = 0.0103117
GAMG:  Solving for p, Initial residual = 0.0519363, Final residual = 0.00372387, No Iterations 6
time step continuity errors : sum local = 2.32096e-08, global = -7.29458e-18, cumulative = -1.34195e-16
Pressure gradient source: uncorrected Ubar = 1, pressure gradient = 0.0103109
smoothSolver:  Solving for omega, Initial residual = 4.41372e-06, Final residual = 4.41372e-06, No Iterations 0
smoothSolver:  Solving for k, Initial residual = 5.61563e-05, Final residual = 7.04029e-06, No Iterations 4
ExecutionTime = 2.83626 s  ClockTime = 3 s

Time = 1299s

smoothSolver:  Solving for Ux, Initial residual = 1.02047e-05, Final residual = 6.38518e-06, No Iterations 1
smoothSolver:  Solving for Uy, Initial residual = 0.103799, Final residual = 0.0083783, No Iterations 3
Pressure gradient source: uncorrected Ubar = 1, pressure gradient = 0.0103115
GAMG:  Solving for p, Initial residual = 0.0473379, Final residual = 0.00298586, No Iterations 6
time step continuity errors : sum local = 2.03018e-08, global = -1.46527e-17, cumulative = -1.48847e-16
Pressure gradient source: uncorrected Ubar = 1, pressure gradient = 0.0103106
smoothSolver:  Solving for omega, Initial residual = 4.41351e-06, Final residual = 4.41351e-06, No Iterations 0
smoothSolver:  Solving for k, Initial residual = 5.5401e-05, Final residual = 6.03714e-06, No Iterations 4
ExecutionTime = 2.83862 s  ClockTime = 3 s

Time = 1300s

smoothSolver:  Solving for Ux, Initial residual = 1.02319e-05, Final residual = 6.40741e-06, No Iterations 1
smoothSolver:  Solving for Uy, Initial residual = 0.0658747, Final residual = 0.00567946, No Iterations 3
Pressure gradient source: uncorrected Ubar = 1, pressure gradient = 0.0103112
GAMG:  Solving for p, Initial residual = 0.0311269, Final residual = 0.00248103, No Iterations 7
time step continuity errors : sum local = 1.56678e-08, global = 3.89356e-18, cumulative = -1.44954e-16
Pressure gradient source: uncorrected Ubar = 1, pressure gradient = 0.0103104
smoothSolver:  Solving for omega, Initial residual = 4.41321e-06, Final residual = 4.41321e-06, No Iterations 0
smoothSolver:  Solving for k, Initial residual = 5.52554e-05, Final residual = 7.09643e-06, No Iterations 4
ExecutionTime = 2.84078 s  ClockTime = 3 s

Time = 1301s

smoothSolver:  Solving for Ux, Initial residual = 1.03235e-05, Final residual = 6.46951e-06, No Iterations 1
smoothSolver:  Solving for Uy, Initial residual = 0.0481814, Final residual = 0.00382692, No Iterations 3
Pressure gradient source: uncorrected Ubar = 1, pressure gradient = 0.010311
GAMG:  Solving for p, Initial residual = 0.0243114, Final residual = 0.00169142, No Iterations 5
time step continuity errors : sum local = 1.12286e-08, global = 1.02649e-17, cumulative = -1.34689e-16
Pressure gradient source: uncorrected Ubar = 1, pressure gradient = 0.0103101
smoothSolver:  Solving for omega, Initial residual = 4.413e-06, Final residual = 4.413e-06, No Iterations 0
smoothSolver:  Solving for k, Initial residual = 5.48118e-05, Final residual = 7.92376e-06, No Iterations 4
ExecutionTime = 2.84271 s  ClockTime = 3 s

Time = 1302s

smoothSolver:  Solving for Ux, Initial residual = 1.04199e-05, Final residual = 6.53467e-06, No Iterations 1
smoothSolver:  Solving for Uy, Initial residual = 0.0430676, Final residual = 0.00336219, No Iterations 3
Pressure gradient source: uncorrected Ubar = 1, pressure gradient = 0.0103107
GAMG:  Solving for p, Initial residual = 0.0242522, Final residual = 0.00176881, No Iterations 4
time step continuity errors : sum local = 1.18236e-08, global = 2.11971e-18, cumulative = -1.32569e-16
Pressure gradient source: uncorrected Ubar = 1, pressure gradient = 0.0103099
smoothSolver:  Solving for omega, Initial residual = 4.41278e-06, Final residual = 4.41278e-06, No Iterations 0
smoothSolver:  Solving for k, Initial residual = 5.35086e-05, Final residual = 9.7571e-06, No Iterations 3
ExecutionTime = 2.84464 s  ClockTime = 3 s

Time = 1303s

smoothSolver:  Solving for Ux, Initial residual = 1.04643e-05, Final residual = 6.56737e-06, No Iterations 1
smoothSolver:  Solving for Uy, Initial residual = 0.0402619, Final residual = 0.00302803, No Iterations 3
Pressure gradient source: uncorrected Ubar = 1, pressure gradient = 0.0103106
GAMG:  Solving for p, Initial residual = 0.022445, Final residual = 0.00213467, No Iterations 3
time step continuity errors : sum local = 1.48569e-08, global = -5.17821e-18, cumulative = -1.37747e-16
Pressure gradient source: uncorrected Ubar = 1, pressure gradient = 0.0103097
smoothSolver:  Solving for omega, Initial residual = 4.41257e-06, Final residual = 4.41257e-06, No Iterations 0
smoothSolver:  Solving for k, Initial residual = 5.28388e-05, Final residual = 9.18854e-06, No Iterations 3
ExecutionTime = 2.84653 s  ClockTime = 3 s

Time = 1304s

smoothSolver:  Solving for Ux, Initial residual = 1.05278e-05, Final residual = 6.61321e-06, No Iterations 1
smoothSolver:  Solving for Uy, Initial residual = 0.0221452, Final residual = 0.00183804, No Iterations 3
Pressure gradient source: uncorrected Ubar = 1, pressure gradient = 0.0103104
GAMG:  Solving for p, Initial residual = 0.0119131, Final residual = 0.00111173, No Iterations 3
time step continuity errors : sum local = 7.98198e-09, global = -7.87258e-18, cumulative = -1.4562e-16
Pressure gradient source: uncorrected Ubar = 1, pressure gradient = 0.0103095
smoothSolver:  Solving for omega, Initial residual = 4.41235e-06, Final residual = 4.41235e-06, No Iterations 0
smoothSolver:  Solving for k, Initial residual = 5.30209e-05, Final residual = 7.56409e-06, No Iterations 4
ExecutionTime = 2.84851 s  ClockTime = 3 s

Time = 1305s

smoothSolver:  Solving for Ux, Initial residual = 1.06613e-05, Final residual = 6.70142e-06, No Iterations 1
smoothSolver:  Solving for Uy, Initial residual = 0.0167938, Final residual = 0.0011981, No Iterations 3
Pressure gradient source: uncorrected Ubar = 1, pressure gradient = 0.01031
GAMG:  Solving for p, Initial residual = 0.0132172, Final residual = 0.00108678, No Iterations 3
time step continuity errors : sum local = 7.78273e-09, global = -6.8063e-18, cumulative = -1.52426e-16
Pressure gradient source: uncorrected Ubar = 1, pressure gradient = 0.0103092
smoothSolver:  Solving for omega, Initial residual = 4.41212e-06, Final residual = 4.41212e-06, No Iterations 0
smoothSolver:  Solving for k, Initial residual = 5.21794e-05, Final residual = 6.72442e-06, No Iterations 4
ExecutionTime = 2.85055 s  ClockTime = 3 s

Time = 1306s

smoothSolver:  Solving for Ux, Initial residual = 1.07703e-05, Final residual = 6.76613e-06, No Iterations 1
smoothSolver:  Solving for Uy, Initial residual = 0.0168075, Final residual = 0.00112621, No Iterations 3
Pressure gradient source: uncorrected Ubar = 1, pressure gradient = 0.0103098
GAMG:  Solving for p, Initial residual = 0.0162549, Final residual = 0.00133531, No Iterations 4
time step continuity errors : sum local = 9.68065e-09, global = 4.01107e-18, cumulative = -1.48415e-16
Pressure gradient source: uncorrected Ubar = 1, pressure gradient = 0.0103089
smoothSolver:  Solving for omega, Initial residual = 4.4119e-06, Final residual = 4.4119e-06, No Iterations 0
smoothSolver:  Solving for k, Initial residual = 5.12685e-05, Final residual = 6.48163e-06, No Iterations 4
ExecutionTime = 2.85266 s  ClockTime = 3 s

Time = 1307s

smoothSolver:  Solving for Ux, Initial residual = 1.0856e-05, Final residual = 6.81997e-06, No Iterations 1
smoothSolver:  Solving for Uy, Initial residual = 0.0190859, Final residual = 0.00130011, No Iterations 3
Pressure gradient source: uncorrected Ubar = 1, pressure gradient = 0.0103096
GAMG:  Solving for p, Initial residual = 0.0158778, Final residual = 0.00104253, No Iterations 4
time step continuity errors : sum local = 7.90252e-09, global = -3.22651e-19, cumulative = -1.48738e-16
Pressure gradient source: uncorrected Ubar = 1, pressure gradient = 0.0103087
smoothSolver:  Solving for omega, Initial residual = 4.41168e-06, Final residual = 4.41168e-06, No Iterations 0
smoothSolver:  Solving for k, Initial residual = 5.07112e-05, Final residual = 9.685e-06, No Iterations 3
ExecutionTime = 2.855 s  ClockTime = 3 s

Time = 1308s

smoothSolver:  Solving for Ux, Initial residual = 1.09349e-05, Final residual = 6.86988e-06, No Iterations 1
smoothSolver:  Solving for Uy, Initial residual = 0.0149813, Final residual = 0.000747649, No Iterations 3
Pressure gradient source: uncorrected Ubar = 1, pressure gradient = 0.0103094
GAMG:  Solving for p, Initial residual = 0.0166471, Final residual = 0.00131663, No Iterations 4
time step continuity errors : sum local = 9.86681e-09, global = 2.92522e-18, cumulative = -1.45812e-16
Pressure gradient source: uncorrected Ubar = 1, pressure gradient = 0.0103085
smoothSolver:  Solving for omega, Initial residual = 4.41145e-06, Final residual = 4.41145e-06, No Iterations 0
smoothSolver:  Solving for k, Initial residual = 4.99056e-05, Final residual = 9.32897e-06, No Iterations 3
ExecutionTime = 2.85715 s  ClockTime = 3 s

Time = 1309s

smoothSolver:  Solving for Ux, Initial residual = 1.10123e-05, Final residual = 6.91527e-06, No Iterations 1
smoothSolver:  Solving for Uy, Initial residual = 0.012238, Final residual = 0.000901792, No Iterations 3
Pressure gradient source: uncorrected Ubar = 1, pressure gradient = 0.0103092
GAMG:  Solving for p, Initial residual = 0.0136437, Final residual = 0.0012235, No Iterations 5
time step continuity errors : sum local = 8.52929e-09, global = 7.99148e-18, cumulative = -1.37821e-16
Pressure gradient source: uncorrected Ubar = 1, pressure gradient = 0.0103082
smoothSolver:  Solving for omega, Initial residual = 4.41124e-06, Final residual = 4.41124e-06, No Iterations 0
smoothSolver:  Solving for k, Initial residual = 4.9403e-05, Final residual = 9.28884e-06, No Iterations 3
ExecutionTime = 2.85918 s  ClockTime = 3 s

Time = 1310s

smoothSolver:  Solving for Ux, Initial residual = 1.11018e-05, Final residual = 6.97015e-06, No Iterations 1
smoothSolver:  Solving for Uy, Initial residual = 0.0156792, Final residual = 0.00119489, No Iterations 3
Pressure gradient source: uncorrected Ubar = 1, pressure gradient = 0.010309
GAMG:  Solving for p, Initial residual = 0.0130445, Final residual = 0.00114319, No Iterations 5
time step continuity errors : sum local = 8.15608e-09, global = -8.82651e-19, cumulative = -1.38704e-16
Pressure gradient source: uncorrected Ubar = 1, pressure gradient = 0.010308
smoothSolver:  Solving for omega, Initial residual = 4.41099e-06, Final residual = 4.41099e-06, No Iterations 0
smoothSolver:  Solving for k, Initial residual = 4.90656e-05, Final residual = 6.14385e-06, No Iterations 4
ExecutionTime = 2.86122 s  ClockTime = 3 s

Time = 1311s

smoothSolver:  Solving for Ux, Initial residual = 1.11771e-05, Final residual = 7.02195e-06, No Iterations 1
smoothSolver:  Solving for Uy, Initial residual = 0.0137176, Final residual = 0.00108894, No Iterations 3
Pressure gradient source: uncorrected Ubar = 1, pressure gradient = 0.0103087
GAMG:  Solving for p, Initial residual = 0.0130095, Final residual = 0.00113926, No Iterations 5
time step continuity errors : sum local = 7.89621e-09, global = 1.58201e-17, cumulative = -1.22884e-16
Pressure gradient source: uncorrected Ubar = 1, pressure gradient = 0.0103077
smoothSolver:  Solving for omega, Initial residual = 4.41077e-06, Final residual = 4.41077e-06, No Iterations 0
smoothSolver:  Solving for k, Initial residual = 4.82873e-05, Final residual = 9.6215e-06, No Iterations 3
ExecutionTime = 2.86319 s  ClockTime = 3 s

Time = 1312s

smoothSolver:  Solving for Ux, Initial residual = 1.12433e-05, Final residual = 7.06344e-06, No Iterations 1
smoothSolver:  Solving for Uy, Initial residual = 0.0153735, Final residual = 0.00107202, No Iterations 3
Pressure gradient source: uncorrected Ubar = 1, pressure gradient = 0.0103085
GAMG:  Solving for p, Initial residual = 0.0129199, Final residual = 0.00110858, No Iterations 5
time step continuity errors : sum local = 7.57773e-09, global = 4.47245e-18, cumulative = -1.18411e-16
Pressure gradient source: uncorrected Ubar = 1, pressure gradient = 0.0103075
smoothSolver:  Solving for omega, Initial residual = 4.41055e-06, Final residual = 4.41055e-06, No Iterations 0
smoothSolver:  Solving for k, Initial residual = 4.77076e-05, Final residual = 9.57037e-06, No Iterations 3
ExecutionTime = 2.86524 s  ClockTime = 3 s

Time = 1313s

smoothSolver:  Solving for Ux, Initial residual = 1.13157e-05, Final residual = 7.10825e-06, No Iterations 1
smoothSolver:  Solving for Uy, Initial residual = 0.0143802, Final residual = 0.000964901, No Iterations 3
Pressure gradient source: uncorrected Ubar = 1, pressure gradient = 0.0103083
GAMG:  Solving for p, Initial residual = 0.013552, Final residual = 0.000733981, No Iterations 5
time step continuity errors : sum local = 5.00844e-09, global = -5.05684e-18, cumulative = -1.23468e-16
Pressure gradient source: uncorrected Ubar = 1, pressure gradient = 0.0103072
smoothSolver:  Solving for omega, Initial residual = 4.41032e-06, Final residual = 4.41032e-06, No Iterations 0
smoothSolver:  Solving for k, Initial residual = 4.6826e-05, Final residual = 9.03277e-06, No Iterations 3
ExecutionTime = 2.86736 s  ClockTime = 3 s

Time = 1314s

smoothSolver:  Solving for Ux, Initial residual = 1.13554e-05, Final residual = 7.13449e-06, No Iterations 1
smoothSolver:  Solving for Uy, Initial residual = 0.016287, Final residual = 0.00113329, No Iterations 3
Pressure gradient source: uncorrected Ubar = 1, pressure gradient = 0.0103081
GAMG:  Solving for p, Initial residual = 0.0140167, Final residual = 0.0011279, No Iterations 3
time step continuity errors : sum local = 7.86371e-09, global = 7.70687e-18, cumulative = -1.15761e-16
Pressure gradient source: uncorrected Ubar = 1, pressure gradient = 0.010307
smoothSolver:  Solving for omega, Initial residual = 4.41008e-06, Final residual = 4.41008e-06, No Iterations 0
smoothSolver:  Solving for k, Initial residual = 4.63019e-05, Final residual = 8.66543e-06, No Iterations 3
ExecutionTime = 2.86941 s  ClockTime = 3 s

Time = 1315s

smoothSolver:  Solving for Ux, Initial residual = 1.14072e-05, Final residual = 7.16559e-06, No Iterations 1
smoothSolver:  Solving for Uy, Initial residual = 0.014087, Final residual = 0.00109413, No Iterations 3
Pressure gradient source: uncorrected Ubar = 1, pressure gradient = 0.0103079
GAMG:  Solving for p, Initial residual = 0.00820468, Final residual = 0.000793253, No Iterations 4
time step continuity errors : sum local = 5.37115e-09, global = 9.05923e-18, cumulative = -1.06702e-16
Pressure gradient source: uncorrected Ubar = 1, pressure gradient = 0.0103068
smoothSolver:  Solving for omega, Initial residual = 4.40986e-06, Final residual = 4.40986e-06, No Iterations 0
smoothSolver:  Solving for k, Initial residual = 4.60026e-05, Final residual = 9.81023e-06, No Iterations 3
ExecutionTime = 2.872 s  ClockTime = 3 s

Time = 1316s

smoothSolver:  Solving for Ux, Initial residual = 1.14509e-05, Final residual = 7.19847e-06, No Iterations 1
smoothSolver:  Solving for Uy, Initial residual = 0.0126948, Final residual = 0.00082891, No Iterations 3
Pressure gradient source: uncorrected Ubar = 1, pressure gradient = 0.0103076
GAMG:  Solving for p, Initial residual = 0.0097017, Final residual = 0.00093188, No Iterations 4
time step continuity errors : sum local = 6.54949e-09, global = 2.76614e-18, cumulative = -1.03936e-16
Pressure gradient source: uncorrected Ubar = 1, pressure gradient = 0.0103065
smoothSolver:  Solving for omega, Initial residual = 4.40962e-06, Final residual = 4.40962e-06, No Iterations 0
smoothSolver:  Solving for k, Initial residual = 4.50398e-05, Final residual = 8.43104e-06, No Iterations 3
ExecutionTime = 2.87419 s  ClockTime = 3 s

Time = 1317s

smoothSolver:  Solving for Ux, Initial residual = 1.14835e-05, Final residual = 7.21826e-06, No Iterations 1
smoothSolver:  Solving for Uy, Initial residual = 0.0144037, Final residual = 0.00109634, No Iterations 3
Pressure gradient source: uncorrected Ubar = 1, pressure gradient = 0.0103074
GAMG:  Solving for p, Initial residual = 0.0116584, Final residual = 0.00110082, No Iterations 3
time step continuity errors : sum local = 7.57191e-09, global = 9.30293e-18, cumulative = -9.46328e-17
Pressure gradient source: uncorrected Ubar = 1, pressure gradient = 0.0103063
smoothSolver:  Solving for omega, Initial residual = 4.4094e-06, Final residual = 4.4094e-06, No Iterations 0
smoothSolver:  Solving for k, Initial residual = 4.45225e-05, Final residual = 8.93176e-06, No Iterations 3
ExecutionTime = 2.87616 s  ClockTime = 3 s

Time = 1318s

smoothSolver:  Solving for Ux, Initial residual = 1.15345e-05, Final residual = 7.24629e-06, No Iterations 1
smoothSolver:  Solving for Uy, Initial residual = 0.00720261, Final residual = 0.000436304, No Iterations 3
Pressure gradient source: uncorrected Ubar = 1, pressure gradient = 0.0103072
GAMG:  Solving for p, Initial residual = 0.00611507, Final residual = 0.000368569, No Iterations 4
time step continuity errors : sum local = 2.55617e-09, global = -8.51157e-18, cumulative = -1.03144e-16
Pressure gradient source: uncorrected Ubar = 1, pressure gradient = 0.0103061
smoothSolver:  Solving for omega, Initial residual = 4.40919e-06, Final residual = 4.40919e-06, No Iterations 0
smoothSolver:  Solving for k, Initial residual = 4.43453e-05, Final residual = 6.48781e-06, No Iterations 4
ExecutionTime = 2.87807 s  ClockTime = 3 s


SIMPLE solution converged in 1318 iterations

End

