/*---------------------------------------------------------------------------*\
  =========                 |
  \\      /  F ield         | OpenFOAM: The Open Source CFD Toolbox
   \\    /   O peration     | Website:  https://openfoam.org
    \\  /    A nd           | Version:  10
     \\/     M anipulation  |
\*---------------------------------------------------------------------------*/
Build  : 10-e450dce21ea5
Exec   : blockMesh
Date   : Feb 20 2023
Time   : 14:08:11
Host   : "w530-R9YK46P"
PID    : 18353
I/O    : uncollated
Case   : /home/jdmezazeron/gitDanielMezaZ/turbulenceVisualized/Data/SimulationFiles/K9_Re277
nProcs : 1
sigFpe : Enabling floating point exception trapping (FOAM_SIGFPE).
fileModificationChecking : Monitoring run-time modified files using timeStampMaster (fileModificationSkew 10)
allowSystemOperations : Allowing user-supplied system call operations

// * * * * * * * * * * * * * * * * * * * * * * * * * * * * * * * * * * * * * //
Create time

Deleting polyMesh directory
    "/home/jdmezazeron/gitDanielMezaZ/turbulenceVisualized/Data/SimulationFiles/K9_Re277/constant/polyMesh"
Reading "blockMeshDict"

Creating block mesh from
    "system/blockMeshDict"
Creating block edges
No non-planar block faces defined
Creating topology blocks
Creating topology patches

Creating block mesh topology

Check topology

	Basic statistics
		Number of internal faces : 0
		Number of boundary faces : 6
		Number of defined boundary faces : 6
		Number of undefined boundary faces : 0
	Checking patch -> block consistency

Creating block offsets
Creating merge list .

Creating polyMesh from blockMesh
Creating patches
Creating cells
Creating points with scale 1
    Block 0 cell size :
        i : 0.5
        j : 0.00461374 .. 0.018455
        k : 2

Detected cyclic patches; ordering boundary faces

Writing polyMesh
----------------
Mesh Information
----------------
  boundingBox: (-1 0 -1) (1 1 1)
  nPoints: 1010
  nCells: 400
  nFaces: 1704
  nInternalFaces: 696
----------------
Patches
----------------
  patch 0 (start: 696 size: 100) name: inlet
  patch 1 (start: 796 size: 100) name: outlet
  patch 2 (start: 896 size: 4) name: fixedWalls-bottom
  patch 3 (start: 900 size: 4) name: fixedWalls-top
  patch 4 (start: 904 size: 800) name: frontAndBack

End

/*---------------------------------------------------------------------------*\
  =========                 |
  \\      /  F ield         | OpenFOAM: The Open Source CFD Toolbox
   \\    /   O peration     | Website:  https://openfoam.org
    \\  /    A nd           | Version:  10
     \\/     M anipulation  |
\*---------------------------------------------------------------------------*/
Build  : 10-e450dce21ea5
Exec   : simpleFoam
Date   : Feb 20 2023
Time   : 14:08:11
Host   : "w530-R9YK46P"
PID    : 18354
I/O    : uncollated
Case   : /home/jdmezazeron/gitDanielMezaZ/turbulenceVisualized/Data/SimulationFiles/K9_Re277
nProcs : 1
sigFpe : Enabling floating point exception trapping (FOAM_SIGFPE).
fileModificationChecking : Monitoring run-time modified files using timeStampMaster (fileModificationSkew 10)
allowSystemOperations : Allowing user-supplied system call operations

// * * * * * * * * * * * * * * * * * * * * * * * * * * * * * * * * * * * * * //
Create time

Create mesh for time = 0


SIMPLE: Convergence criteria found
        U: tolerance 0.0001
        p: tolerance 0.01
        omega: tolerance 0.0001

Reading field p

Reading field U

Reading/calculating face flux field phi

Selecting viscosity model Newtonian
Selecting turbulence model type RAS
Selecting RAS turbulence model kOmegaSST
Selecting patchDistMethod meshWave
RAS
{
    RASModel        kOmegaSST;
    turbulence      on;
    printCoeffs     on;
    alphaK1         0.85;
    alphaK2         1;
    alphaOmega1     0.5;
    alphaOmega2     0.856;
    gamma1          0.555556;
    gamma2          0.44;
    beta1           0.075;
    beta2           0.0828;
    betaStar        0.09;
    a1              0.31;
    b1              1;
    c1              10;
    F3              false;
}

No MRF models present

--> FOAM Warning : Creating fvModels from "system/fvOptions" rather than constant/fvModels
No fvModels present
--> FOAM Warning : Creating fvConstraints from "system/fvOptions"

Selecting finite volume constraint type meanVelocityForce
    Name: momentumSource
    - selecting all cells
    - selected 400 cell(s) with volume 4
    Initial pressure gradient = 0


Starting time loop

turbulenceFields stressComponents: storing fields:
    R

Time = 1s

smoothSolver:  Solving for Ux, Initial residual = 0, Final residual = 0, No Iterations 0
smoothSolver:  Solving for Uy, Initial residual = 0, Final residual = 0, No Iterations 0
Pressure gradient source: uncorrected Ubar = 0, pressure gradient = 1708.19
GAMG:  Solving for p, Initial residual = 0.999996, Final residual = 0.0526764, No Iterations 3
time step continuity errors : sum local = 9.05823e-17, global = 4.93958e-18, cumulative = 4.93958e-18
Pressure gradient source: uncorrected Ubar = 0.884648, pressure gradient = 197.043
smoothSolver:  Solving for omega, Initial residual = 0.101508, Final residual = 0.00613343, No Iterations 3
smoothSolver:  Solving for k, Initial residual = 1, Final residual = 0.0522291, No Iterations 2
ExecutionTime = 0.014096 s  ClockTime = 0 s

Time = 2s

smoothSolver:  Solving for Ux, Initial residual = 0.949888, Final residual = 0.0813926, No Iterations 6
smoothSolver:  Solving for Uy, Initial residual = 1, Final residual = 0.0728541, No Iterations 6
Pressure gradient source: uncorrected Ubar = 13.9891, pressure gradient = -1477.71
GAMG:  Solving for p, Initial residual = 1, Final residual = 0.0939043, No Iterations 16
time step continuity errors : sum local = 0.0066203, global = 7.02021e-18, cumulative = 1.19598e-17
Pressure gradient source: uncorrected Ubar = 2.63953, pressure gradient = -14.3494
smoothSolver:  Solving for omega, Initial residual = 0.197996, Final residual = 0.000784667, No Iterations 1
smoothSolver:  Solving for k, Initial residual = 0.805097, Final residual = 0.0190004, No Iterations 1
ExecutionTime = 0.017373 s  ClockTime = 0 s

Time = 3s

smoothSolver:  Solving for Ux, Initial residual = 0.385684, Final residual = 0.0378015, No Iterations 5
smoothSolver:  Solving for Uy, Initial residual = 0.313876, Final residual = 0.0191344, No Iterations 5
Pressure gradient source: uncorrected Ubar = 0.151412, pressure gradient = 98.4306
GAMG:  Solving for p, Initial residual = 0.219259, Final residual = 0.02101, No Iterations 9
time step continuity errors : sum local = 0.0027456, global = -3.97767e-18, cumulative = 7.98212e-18
Pressure gradient source: uncorrected Ubar = 0.886385, pressure gradient = 0.750449
smoothSolver:  Solving for omega, Initial residual = 0.00928881, Final residual = 0.000182666, No Iterations 1
smoothSolver:  Solving for k, Initial residual = 0.0782921, Final residual = 0.0048431, No Iterations 2
ExecutionTime = 0.020083 s  ClockTime = 0 s

Time = 4s

smoothSolver:  Solving for Ux, Initial residual = 0.0485486, Final residual = 0.00401239, No Iterations 4
smoothSolver:  Solving for Uy, Initial residual = 0.117801, Final residual = 0.00839583, No Iterations 5
Pressure gradient source: uncorrected Ubar = 1.0196, pressure gradient = -1.7325
GAMG:  Solving for p, Initial residual = 0.184243, Final residual = 0.0173601, No Iterations 16
time step continuity errors : sum local = 0.00243595, global = 6.25788e-18, cumulative = 1.424e-17
Pressure gradient source: uncorrected Ubar = 1.0024, pressure gradient = 0.446452
smoothSolver:  Solving for omega, Initial residual = 0.00799947, Final residual = 0.000138007, No Iterations 1
smoothSolver:  Solving for k, Initial residual = 0.0271774, Final residual = 0.00252974, No Iterations 4
ExecutionTime = 0.02316 s  ClockTime = 0 s

Time = 5s

smoothSolver:  Solving for Ux, Initial residual = 0.0294701, Final residual = 0.00275781, No Iterations 4
smoothSolver:  Solving for Uy, Initial residual = 0.119507, Final residual = 0.0102399, No Iterations 5
Pressure gradient source: uncorrected Ubar = 0.996163, pressure gradient = 0.933517
GAMG:  Solving for p, Initial residual = 0.195743, Final residual = 0.0181961, No Iterations 14
time step continuity errors : sum local = 0.00223678, global = 1.04626e-17, cumulative = 2.47026e-17
Pressure gradient source: uncorrected Ubar = 0.999261, pressure gradient = 0.540243
smoothSolver:  Solving for omega, Initial residual = 0.00327423, Final residual = 8.18725e-05, No Iterations 1
smoothSolver:  Solving for k, Initial residual = 0.0344823, Final residual = 0.00276373, No Iterations 5
ExecutionTime = 0.02619 s  ClockTime = 0 s

Time = 6s

smoothSolver:  Solving for Ux, Initial residual = 0.0287106, Final residual = 0.00284194, No Iterations 4
smoothSolver:  Solving for Uy, Initial residual = 0.112602, Final residual = 0.00802985, No Iterations 5
Pressure gradient source: uncorrected Ubar = 0.99282, pressure gradient = 1.52108
GAMG:  Solving for p, Initial residual = 0.200656, Final residual = 0.0199148, No Iterations 16
time step continuity errors : sum local = 0.00162317, global = -4.22839e-18, cumulative = 2.04742e-17
Pressure gradient source: uncorrected Ubar = 0.998876, pressure gradient = 0.693843
smoothSolver:  Solving for omega, Initial residual = 0.00215741, Final residual = 5.35909e-05, No Iterations 1
smoothSolver:  Solving for k, Initial residual = 0.0603285, Final residual = 0.00566799, No Iterations 5
ExecutionTime = 0.029235 s  ClockTime = 0 s

Time = 7s

smoothSolver:  Solving for Ux, Initial residual = 0.0285432, Final residual = 0.00197063, No Iterations 5
smoothSolver:  Solving for Uy, Initial residual = 0.104061, Final residual = 0.00667107, No Iterations 5
Pressure gradient source: uncorrected Ubar = 0.998379, pressure gradient = 0.934038
GAMG:  Solving for p, Initial residual = 0.191962, Final residual = 0.0188096, No Iterations 15
time step continuity errors : sum local = 0.00098135, global = -1.23794e-17, cumulative = 8.09478e-18
Pressure gradient source: uncorrected Ubar = 0.99972, pressure gradient = 0.735336
smoothSolver:  Solving for omega, Initial residual = 0.00109038, Final residual = 3.05166e-05, No Iterations 1
smoothSolver:  Solving for k, Initial residual = 0.0868208, Final residual = 0.00593382, No Iterations 6
ExecutionTime = 0.03226 s  ClockTime = 0 s

Time = 8s

smoothSolver:  Solving for Ux, Initial residual = 0.0289448, Final residual = 0.00192331, No Iterations 5
smoothSolver:  Solving for Uy, Initial residual = 0.126647, Final residual = 0.00796236, No Iterations 5
Pressure gradient source: uncorrected Ubar = 0.996622, pressure gradient = 1.28712
GAMG:  Solving for p, Initial residual = 0.0879901, Final residual = 0.00789289, No Iterations 12
time step continuity errors : sum local = 0.000565473, global = 1.14036e-17, cumulative = 1.94984e-17
Pressure gradient source: uncorrected Ubar = 0.999519, pressure gradient = 0.813905
smoothSolver:  Solving for omega, Initial residual = 0.00063929, Final residual = 2.10127e-05, No Iterations 1
smoothSolver:  Solving for k, Initial residual = 0.108925, Final residual = 0.00750557, No Iterations 6
ExecutionTime = 0.035129 s  ClockTime = 0 s

Time = 9s

smoothSolver:  Solving for Ux, Initial residual = 0.0283218, Final residual = 0.00185669, No Iterations 5
smoothSolver:  Solving for Uy, Initial residual = 0.138196, Final residual = 0.00820099, No Iterations 5
Pressure gradient source: uncorrected Ubar = 0.998858, pressure gradient = 1.02103
GAMG:  Solving for p, Initial residual = 0.0723655, Final residual = 0.00646183, No Iterations 6
time step continuity errors : sum local = 0.000441224, global = -3.68629e-18, cumulative = 1.58121e-17
Pressure gradient source: uncorrected Ubar = 0.999815, pressure gradient = 0.847469
smoothSolver:  Solving for omega, Initial residual = 0.000347701, Final residual = 1.35876e-05, No Iterations 1
smoothSolver:  Solving for k, Initial residual = 0.0930457, Final residual = 0.00682329, No Iterations 6
ExecutionTime = 0.037812 s  ClockTime = 0 s

Time = 10s

smoothSolver:  Solving for Ux, Initial residual = 0.0262483, Final residual = 0.00171942, No Iterations 5
smoothSolver:  Solving for Uy, Initial residual = 0.118731, Final residual = 0.0108289, No Iterations 4
Pressure gradient source: uncorrected Ubar = 1.00018, pressure gradient = 0.811641
GAMG:  Solving for p, Initial residual = 0.0689226, Final residual = 0.00680337, No Iterations 5
time step continuity errors : sum local = 0.000386764, global = 1.16754e-17, cumulative = 2.74875e-17
Pressure gradient source: uncorrected Ubar = 0.999989, pressure gradient = 0.849716
smoothSolver:  Solving for omega, Initial residual = 0.000197711, Final residual = 9.78485e-06, No Iterations 1
smoothSolver:  Solving for k, Initial residual = 0.0598422, Final residual = 0.00457415, No Iterations 6
ExecutionTime = 0.04036 s  ClockTime = 0 s

Time = 11s

smoothSolver:  Solving for Ux, Initial residual = 0.0236344, Final residual = 0.00156752, No Iterations 5
smoothSolver:  Solving for Uy, Initial residual = 0.104446, Final residual = 0.00702669, No Iterations 5
Pressure gradient source: uncorrected Ubar = 1.00235, pressure gradient = 0.351176
GAMG:  Solving for p, Initial residual = 0.0833358, Final residual = 0.00817682, No Iterations 5
time step continuity errors : sum local = 0.000372728, global = 2.88002e-18, cumulative = 3.03675e-17
Pressure gradient source: uncorrected Ubar = 1.00026, pressure gradient = 0.793891
smoothSolver:  Solving for omega, Initial residual = 0.000111208, Final residual = 6.93492e-06, No Iterations 1
smoothSolver:  Solving for k, Initial residual = 0.0414075, Final residual = 0.00321161, No Iterations 6
ExecutionTime = 0.042905 s  ClockTime = 0 s

Time = 12s

smoothSolver:  Solving for Ux, Initial residual = 0.0218919, Final residual = 0.00144299, No Iterations 5
smoothSolver:  Solving for Uy, Initial residual = 0.0887553, Final residual = 0.00689507, No Iterations 5
Pressure gradient source: uncorrected Ubar = 1.00207, pressure gradient = 0.32496
GAMG:  Solving for p, Initial residual = 0.094302, Final residual = 0.00930658, No Iterations 10
time step continuity errors : sum local = 0.000317118, global = 1.38507e-17, cumulative = 4.42182e-17
Pressure gradient source: uncorrected Ubar = 1.00022, pressure gradient = 0.743052
smoothSolver:  Solving for omega, Initial residual = 6.38646e-05, Final residual = 5.45965e-06, No Iterations 1
smoothSolver:  Solving for k, Initial residual = 0.0311633, Final residual = 0.00242423, No Iterations 6
ExecutionTime = 0.045719 s  ClockTime = 0 s

Time = 13s

smoothSolver:  Solving for Ux, Initial residual = 0.020761, Final residual = 0.00135744, No Iterations 5
smoothSolver:  Solving for Uy, Initial residual = 0.082557, Final residual = 0.00698018, No Iterations 5
Pressure gradient source: uncorrected Ubar = 1.0016, pressure gradient = 0.359253
GAMG:  Solving for p, Initial residual = 0.0997644, Final residual = 0.00880052, No Iterations 12
time step continuity errors : sum local = 0.00022125, global = 5.90213e-18, cumulative = 5.01203e-17
Pressure gradient source: uncorrected Ubar = 1.00016, pressure gradient = 0.704128
smoothSolver:  Solving for omega, Initial residual = 3.73909e-05, Final residual = 4.29479e-06, No Iterations 1
smoothSolver:  Solving for k, Initial residual = 0.0245234, Final residual = 0.0019456, No Iterations 6
ExecutionTime = 0.04861 s  ClockTime = 0 s

Time = 14s

smoothSolver:  Solving for Ux, Initial residual = 0.0198319, Final residual = 0.00129172, No Iterations 5
smoothSolver:  Solving for Uy, Initial residual = 0.0820101, Final residual = 0.00729989, No Iterations 5
Pressure gradient source: uncorrected Ubar = 1.00142, pressure gradient = 0.345999
GAMG:  Solving for p, Initial residual = 0.101591, Final residual = 0.00897541, No Iterations 6
time step continuity errors : sum local = 0.000163374, global = -2.82591e-18, cumulative = 4.72944e-17
Pressure gradient source: uncorrected Ubar = 1.00014, pressure gradient = 0.66937
smoothSolver:  Solving for omega, Initial residual = 2.25377e-05, Final residual = 3.61501e-06, No Iterations 1
smoothSolver:  Solving for k, Initial residual = 0.0197422, Final residual = 0.00156232, No Iterations 6
ExecutionTime = 0.051223 s  ClockTime = 0 s

Time = 15s

smoothSolver:  Solving for Ux, Initial residual = 0.0190223, Final residual = 0.0012432, No Iterations 5
smoothSolver:  Solving for Uy, Initial residual = 0.0812971, Final residual = 0.00722622, No Iterations 5
Pressure gradient source: uncorrected Ubar = 1.00133, pressure gradient = 0.316746
GAMG:  Solving for p, Initial residual = 0.100673, Final residual = 0.0099159, No Iterations 7
time step continuity errors : sum local = 0.000136146, global = -1.58062e-18, cumulative = 4.57138e-17
Pressure gradient source: uncorrected Ubar = 1.00013, pressure gradient = 0.636143
smoothSolver:  Solving for omega, Initial residual = 1.43733e-05, Final residual = 3.15774e-06, No Iterations 1
smoothSolver:  Solving for k, Initial residual = 0.0161025, Final residual = 0.00128635, No Iterations 6
ExecutionTime = 0.053896 s  ClockTime = 0 s

Time = 16s

smoothSolver:  Solving for Ux, Initial residual = 0.0182926, Final residual = 0.00120201, No Iterations 5
smoothSolver:  Solving for Uy, Initial residual = 0.084062, Final residual = 0.00743638, No Iterations 5
Pressure gradient source: uncorrected Ubar = 1.0013, pressure gradient = 0.27459
GAMG:  Solving for p, Initial residual = 0.104018, Final residual = 0.0085597, No Iterations 6
time step continuity errors : sum local = 9.93125e-05, global = -9.68212e-19, cumulative = 4.47456e-17
Pressure gradient source: uncorrected Ubar = 1.00012, pressure gradient = 0.602539
smoothSolver:  Solving for omega, Initial residual = 9.75171e-06, Final residual = 9.75171e-06, No Iterations 0
smoothSolver:  Solving for k, Initial residual = 0.0132025, Final residual = 0.00104542, No Iterations 6
ExecutionTime = 0.05652 s  ClockTime = 0 s

Time = 17s

smoothSolver:  Solving for Ux, Initial residual = 0.0175127, Final residual = 0.00116126, No Iterations 5
smoothSolver:  Solving for Uy, Initial residual = 0.0851332, Final residual = 0.00744014, No Iterations 5
Pressure gradient source: uncorrected Ubar = 1.00149, pressure gradient = 0.169629
GAMG:  Solving for p, Initial residual = 0.0970093, Final residual = 0.00939795, No Iterations 4
time step continuity errors : sum local = 9.8023e-05, global = -2.66048e-18, cumulative = 4.20851e-17
Pressure gradient source: uncorrected Ubar = 1.00015, pressure gradient = 0.560313
smoothSolver:  Solving for omega, Initial residual = 1.01617e-05, Final residual = 3.22965e-06, No Iterations 1
smoothSolver:  Solving for k, Initial residual = 0.0107382, Final residual = 0.000843466, No Iterations 6
ExecutionTime = 0.059064 s  ClockTime = 0 s

Time = 18s

smoothSolver:  Solving for Ux, Initial residual = 0.0170022, Final residual = 0.00112877, No Iterations 5
smoothSolver:  Solving for Uy, Initial residual = 0.0857759, Final residual = 0.00765939, No Iterations 5
Pressure gradient source: uncorrected Ubar = 1.00094, pressure gradient = 0.277604
GAMG:  Solving for p, Initial residual = 0.0913716, Final residual = 0.00894601, No Iterations 6
time step continuity errors : sum local = 8.70921e-05, global = 6.27466e-19, cumulative = 4.27126e-17
Pressure gradient source: uncorrected Ubar = 1.00008, pressure gradient = 0.536984
smoothSolver:  Solving for omega, Initial residual = 7.53494e-06, Final residual = 7.53494e-06, No Iterations 0
smoothSolver:  Solving for k, Initial residual = 0.00872407, Final residual = 0.000685018, No Iterations 6
ExecutionTime = 0.06166 s  ClockTime = 0 s

Time = 19s

smoothSolver:  Solving for Ux, Initial residual = 0.0162092, Final residual = 0.00109473, No Iterations 5
smoothSolver:  Solving for Uy, Initial residual = 0.0791329, Final residual = 0.00732145, No Iterations 5
Pressure gradient source: uncorrected Ubar = 1.00141, pressure gradient = 0.0988455
GAMG:  Solving for p, Initial residual = 0.0747646, Final residual = 0.00652762, No Iterations 7
time step continuity errors : sum local = 6.01441e-05, global = 5.18929e-18, cumulative = 4.79019e-17
Pressure gradient source: uncorrected Ubar = 1.00014, pressure gradient = 0.494294
smoothSolver:  Solving for omega, Initial residual = 7.87525e-06, Final residual = 7.87525e-06, No Iterations 0
smoothSolver:  Solving for k, Initial residual = 0.00811017, Final residual = 0.000568166, No Iterations 6
ExecutionTime = 0.064319 s  ClockTime = 0 s

Time = 20s

smoothSolver:  Solving for Ux, Initial residual = 0.0154608, Final residual = 0.00105459, No Iterations 5
smoothSolver:  Solving for Uy, Initial residual = 0.0706622, Final residual = 0.00655513, No Iterations 5
Pressure gradient source: uncorrected Ubar = 1.00124, pressure gradient = 0.0933337
GAMG:  Solving for p, Initial residual = 0.0680662, Final residual = 0.00638558, No Iterations 7
time step continuity errors : sum local = 5.29753e-05, global = 3.97555e-18, cumulative = 5.18774e-17
Pressure gradient source: uncorrected Ubar = 1.00012, pressure gradient = 0.456007
smoothSolver:  Solving for omega, Initial residual = 8.16926e-06, Final residual = 8.16926e-06, No Iterations 0
smoothSolver:  Solving for k, Initial residual = 0.00798348, Final residual = 0.000556691, No Iterations 6
ExecutionTime = 0.066961 s  ClockTime = 0 s

Time = 21s

smoothSolver:  Solving for Ux, Initial residual = 0.0147082, Final residual = 0.00102238, No Iterations 5
smoothSolver:  Solving for Uy, Initial residual = 0.0619358, Final residual = 0.00606329, No Iterations 5
Pressure gradient source: uncorrected Ubar = 1.00114, pressure gradient = 0.0790118
GAMG:  Solving for p, Initial residual = 0.0658785, Final residual = 0.00644446, No Iterations 8
time step continuity errors : sum local = 5.22137e-05, global = 4.10012e-18, cumulative = 5.59775e-17
Pressure gradient source: uncorrected Ubar = 1.00011, pressure gradient = 0.420576
smoothSolver:  Solving for omega, Initial residual = 8.44028e-06, Final residual = 8.44028e-06, No Iterations 0
smoothSolver:  Solving for k, Initial residual = 0.00803978, Final residual = 0.000555826, No Iterations 6
ExecutionTime = 0.069665 s  ClockTime = 0 s

Time = 22s

smoothSolver:  Solving for Ux, Initial residual = 0.0138225, Final residual = 0.000985203, No Iterations 5
smoothSolver:  Solving for Uy, Initial residual = 0.058323, Final residual = 0.00382333, No Iterations 6
Pressure gradient source: uncorrected Ubar = 1.00116, pressure gradient = 0.0233454
GAMG:  Solving for p, Initial residual = 0.0714724, Final residual = 0.00641747, No Iterations 9
time step continuity errors : sum local = 4.89644e-05, global = -2.37677e-18, cumulative = 5.36007e-17
Pressure gradient source: uncorrected Ubar = 1.00011, pressure gradient = 0.382329
smoothSolver:  Solving for omega, Initial residual = 8.68617e-06, Final residual = 8.68617e-06, No Iterations 0
smoothSolver:  Solving for k, Initial residual = 0.0081605, Final residual = 0.000576818, No Iterations 6
ExecutionTime = 0.072427 s  ClockTime = 0 s

Time = 23s

smoothSolver:  Solving for Ux, Initial residual = 0.0130877, Final residual = 0.000951402, No Iterations 5
smoothSolver:  Solving for Uy, Initial residual = 0.0546968, Final residual = 0.00360219, No Iterations 6
Pressure gradient source: uncorrected Ubar = 1.00108, pressure gradient = 0.00257925
GAMG:  Solving for p, Initial residual = 0.080711, Final residual = 0.00758365, No Iterations 8
time step continuity errors : sum local = 5.12222e-05, global = -6.39081e-18, cumulative = 4.72099e-17
Pressure gradient source: uncorrected Ubar = 1.0001, pressure gradient = 0.346025
smoothSolver:  Solving for omega, Initial residual = 8.92879e-06, Final residual = 8.92879e-06, No Iterations 0
smoothSolver:  Solving for k, Initial residual = 0.0083247, Final residual = 0.000587856, No Iterations 6
ExecutionTime = 0.075152 s  ClockTime = 0 s

Time = 24s

smoothSolver:  Solving for Ux, Initial residual = 0.0122736, Final residual = 0.000917349, No Iterations 5
smoothSolver:  Solving for Uy, Initial residual = 0.0537827, Final residual = 0.00350368, No Iterations 6
Pressure gradient source: uncorrected Ubar = 1.00107, pressure gradient = -0.0374817
GAMG:  Solving for p, Initial residual = 0.085968, Final residual = 0.00820906, No Iterations 7
time step continuity errors : sum local = 5.01513e-05, global = -7.07781e-18, cumulative = 4.01321e-17
Pressure gradient source: uncorrected Ubar = 1.0001, pressure gradient = 0.308887
smoothSolver:  Solving for omega, Initial residual = 9.14664e-06, Final residual = 9.14664e-06, No Iterations 0
smoothSolver:  Solving for k, Initial residual = 0.00852997, Final residual = 0.000618369, No Iterations 6
ExecutionTime = 0.077809 s  ClockTime = 0 s

Time = 25s

smoothSolver:  Solving for Ux, Initial residual = 0.0116559, Final residual = 0.000886673, No Iterations 5
smoothSolver:  Solving for Uy, Initial residual = 0.0532688, Final residual = 0.00521318, No Iterations 5
Pressure gradient source: uncorrected Ubar = 1.001, pressure gradient = -0.0572955
GAMG:  Solving for p, Initial residual = 0.0921505, Final residual = 0.0060287, No Iterations 4
time step continuity errors : sum local = 3.41227e-05, global = -3.72702e-19, cumulative = 3.97594e-17
Pressure gradient source: uncorrected Ubar = 1.0001, pressure gradient = 0.273626
smoothSolver:  Solving for omega, Initial residual = 9.33291e-06, Final residual = 9.33291e-06, No Iterations 0
smoothSolver:  Solving for k, Initial residual = 0.00874765, Final residual = 0.000637653, No Iterations 6
ExecutionTime = 0.080306 s  ClockTime = 0 s

Time = 26s

smoothSolver:  Solving for Ux, Initial residual = 0.011007, Final residual = 0.000856426, No Iterations 5
smoothSolver:  Solving for Uy, Initial residual = 0.0542416, Final residual = 0.00521089, No Iterations 5
Pressure gradient source: uncorrected Ubar = 1.00099, pressure gradient = -0.0964808
GAMG:  Solving for p, Initial residual = 0.0943753, Final residual = 0.00492367, No Iterations 4
time step continuity errors : sum local = 2.55655e-05, global = -2.13366e-18, cumulative = 3.76258e-17
Pressure gradient source: uncorrected Ubar = 1.0001, pressure gradient = 0.237448
smoothSolver:  Solving for omega, Initial residual = 9.4764e-06, Final residual = 9.4764e-06, No Iterations 0
smoothSolver:  Solving for k, Initial residual = 0.00893343, Final residual = 0.00066442, No Iterations 6
ExecutionTime = 0.082793 s  ClockTime = 0 s

Time = 27s

smoothSolver:  Solving for Ux, Initial residual = 0.0105584, Final residual = 0.000832769, No Iterations 5
smoothSolver:  Solving for Uy, Initial residual = 0.0505647, Final residual = 0.00487366, No Iterations 5
Pressure gradient source: uncorrected Ubar = 1.0009, pressure gradient = -0.102733
GAMG:  Solving for p, Initial residual = 0.090207, Final residual = 0.00360243, No Iterations 4
time step continuity errors : sum local = 1.77787e-05, global = 3.90673e-18, cumulative = 4.15325e-17
Pressure gradient source: uncorrected Ubar = 1.00009, pressure gradient = 0.204728
smoothSolver:  Solving for omega, Initial residual = 9.62447e-06, Final residual = 9.62447e-06, No Iterations 0
smoothSolver:  Solving for k, Initial residual = 0.0091303, Final residual = 0.0006796, No Iterations 6
ExecutionTime = 0.085332 s  ClockTime = 0 s

Time = 28s

smoothSolver:  Solving for Ux, Initial residual = 0.0100118, Final residual = 0.000807869, No Iterations 5
smoothSolver:  Solving for Uy, Initial residual = 0.0482899, Final residual = 0.0044942, No Iterations 5
Pressure gradient source: uncorrected Ubar = 1.0009, pressure gradient = -0.14277
GAMG:  Solving for p, Initial residual = 0.0900615, Final residual = 0.00664734, No Iterations 3
time step continuity errors : sum local = 2.93431e-05, global = 2.00204e-19, cumulative = 4.17327e-17
Pressure gradient source: uncorrected Ubar = 1.00009, pressure gradient = 0.170692
smoothSolver:  Solving for omega, Initial residual = 9.78616e-06, Final residual = 9.78616e-06, No Iterations 0
smoothSolver:  Solving for k, Initial residual = 0.00933096, Final residual = 0.000708067, No Iterations 6
ExecutionTime = 0.087888 s  ClockTime = 0 s

Time = 29s

smoothSolver:  Solving for Ux, Initial residual = 0.0096068, Final residual = 0.000787806, No Iterations 5
smoothSolver:  Solving for Uy, Initial residual = 0.0454565, Final residual = 0.0042019, No Iterations 5
Pressure gradient source: uncorrected Ubar = 1.00083, pressure gradient = -0.152042
GAMG:  Solving for p, Initial residual = 0.0938267, Final residual = 0.0071465, No Iterations 3
time step continuity errors : sum local = 2.90892e-05, global = -1.25199e-18, cumulative = 4.04807e-17
Pressure gradient source: uncorrected Ubar = 1.00008, pressure gradient = 0.139396
smoothSolver:  Solving for omega, Initial residual = 9.9458e-06, Final residual = 9.9458e-06, No Iterations 0
smoothSolver:  Solving for k, Initial residual = 0.00952602, Final residual = 0.000722549, No Iterations 6
ExecutionTime = 0.090414 s  ClockTime = 0 s

Time = 30s

smoothSolver:  Solving for Ux, Initial residual = 0.00920527, Final residual = 0.000770463, No Iterations 5
smoothSolver:  Solving for Uy, Initial residual = 0.0471328, Final residual = 0.00423398, No Iterations 5
Pressure gradient source: uncorrected Ubar = 1.0008, pressure gradient = -0.177409
GAMG:  Solving for p, Initial residual = 0.096076, Final residual = 0.00318241, No Iterations 4
time step continuity errors : sum local = 1.24763e-05, global = -4.06683e-19, cumulative = 4.0074e-17
Pressure gradient source: uncorrected Ubar = 1.00008, pressure gradient = 0.108517
smoothSolver:  Solving for omega, Initial residual = 1.01103e-05, Final residual = 4.48715e-06, No Iterations 1
smoothSolver:  Solving for k, Initial residual = 0.00935905, Final residual = 0.000720982, No Iterations 6
ExecutionTime = 0.092903 s  ClockTime = 0 s

Time = 31s

smoothSolver:  Solving for Ux, Initial residual = 0.00890971, Final residual = 0.000759383, No Iterations 5
smoothSolver:  Solving for Uy, Initial residual = 0.0423811, Final residual = 0.00362597, No Iterations 5
Pressure gradient source: uncorrected Ubar = 1.00059, pressure gradient = -0.12808
GAMG:  Solving for p, Initial residual = 0.0850244, Final residual = 0.00561595, No Iterations 3
time step continuity errors : sum local = 2.09921e-05, global = -5.4885e-18, cumulative = 3.45855e-17
Pressure gradient source: uncorrected Ubar = 1.00005, pressure gradient = 0.0877199
smoothSolver:  Solving for omega, Initial residual = 8.11123e-06, Final residual = 8.11123e-06, No Iterations 0
smoothSolver:  Solving for k, Initial residual = 0.00938337, Final residual = 0.000722395, No Iterations 6
ExecutionTime = 0.095377 s  ClockTime = 0 s

Time = 32s

smoothSolver:  Solving for Ux, Initial residual = 0.00866208, Final residual = 0.000748305, No Iterations 5
smoothSolver:  Solving for Uy, Initial residual = 0.0421342, Final residual = 0.00363331, No Iterations 5
Pressure gradient source: uncorrected Ubar = 1.00069, pressure gradient = -0.191234
GAMG:  Solving for p, Initial residual = 0.0841518, Final residual = 0.0065153, No Iterations 3
time step continuity errors : sum local = 2.41339e-05, global = -1.33688e-17, cumulative = 2.12167e-17
Pressure gradient source: uncorrected Ubar = 1.00007, pressure gradient = 0.061164
smoothSolver:  Solving for omega, Initial residual = 8.22533e-06, Final residual = 8.22533e-06, No Iterations 0
smoothSolver:  Solving for k, Initial residual = 0.0096275, Final residual = 0.000744501, No Iterations 6
ExecutionTime = 0.097819 s  ClockTime = 0 s

Time = 33s

smoothSolver:  Solving for Ux, Initial residual = 0.00834641, Final residual = 0.000738234, No Iterations 5
smoothSolver:  Solving for Uy, Initial residual = 0.0390665, Final residual = 0.00328145, No Iterations 5
Pressure gradient source: uncorrected Ubar = 1.00068, pressure gradient = -0.213358
GAMG:  Solving for p, Initial residual = 0.0800125, Final residual = 0.00723307, No Iterations 3
time step continuity errors : sum local = 2.57446e-05, global = 5.96009e-18, cumulative = 2.71768e-17
Pressure gradient source: uncorrected Ubar = 1.00006, pressure gradient = 0.0348907
smoothSolver:  Solving for omega, Initial residual = 8.32263e-06, Final residual = 8.32263e-06, No Iterations 0
smoothSolver:  Solving for k, Initial residual = 0.00980113, Final residual = 0.000756862, No Iterations 6
ExecutionTime = 0.100256 s  ClockTime = 0 s

Time = 34s

smoothSolver:  Solving for Ux, Initial residual = 0.00800556, Final residual = 0.000724117, No Iterations 5
smoothSolver:  Solving for Uy, Initial residual = 0.0399509, Final residual = 0.00305026, No Iterations 5
Pressure gradient source: uncorrected Ubar = 1.00068, pressure gradient = -0.240824
GAMG:  Solving for p, Initial residual = 0.0774729, Final residual = 0.00668264, No Iterations 5
time step continuity errors : sum local = 2.40694e-05, global = 5.60143e-18, cumulative = 3.27782e-17
Pressure gradient source: uncorrected Ubar = 1.00007, pressure gradient = 0.00805221
smoothSolver:  Solving for omega, Initial residual = 8.43086e-06, Final residual = 8.43086e-06, No Iterations 0
smoothSolver:  Solving for k, Initial residual = 0.00996875, Final residual = 0.000771973, No Iterations 6
ExecutionTime = 0.102814 s  ClockTime = 0 s

Time = 35s

smoothSolver:  Solving for Ux, Initial residual = 0.00779185, Final residual = 0.000717432, No Iterations 5
smoothSolver:  Solving for Uy, Initial residual = 0.0356978, Final residual = 0.00271569, No Iterations 5
Pressure gradient source: uncorrected Ubar = 1.00062, pressure gradient = -0.245375
GAMG:  Solving for p, Initial residual = 0.0734194, Final residual = 0.00655273, No Iterations 3
time step continuity errors : sum local = 2.36369e-05, global = -3.52255e-18, cumulative = 2.92557e-17
Pressure gradient source: uncorrected Ubar = 1.00006, pressure gradient = -0.016254
smoothSolver:  Solving for omega, Initial residual = 8.53282e-06, Final residual = 8.53282e-06, No Iterations 0
smoothSolver:  Solving for k, Initial residual = 0.0102028, Final residual = 0.000780599, No Iterations 6
ExecutionTime = 0.10531 s  ClockTime = 0 s

Time = 36s

smoothSolver:  Solving for Ux, Initial residual = 0.00758655, Final residual = 0.000716183, No Iterations 5
smoothSolver:  Solving for Uy, Initial residual = 0.0344825, Final residual = 0.0025495, No Iterations 5
Pressure gradient source: uncorrected Ubar = 1.00059, pressure gradient = -0.257476
GAMG:  Solving for p, Initial residual = 0.0683509, Final residual = 0.00607943, No Iterations 3
time step continuity errors : sum local = 2.13721e-05, global = 2.56925e-18, cumulative = 3.18249e-17
Pressure gradient source: uncorrected Ubar = 1.00006, pressure gradient = -0.0392439
smoothSolver:  Solving for omega, Initial residual = 8.58143e-06, Final residual = 8.58143e-06, No Iterations 0
smoothSolver:  Solving for k, Initial residual = 0.010286, Final residual = 0.000795523, No Iterations 6
ExecutionTime = 0.107764 s  ClockTime = 0 s

Time = 37s

smoothSolver:  Solving for Ux, Initial residual = 0.00735467, Final residual = 0.000710044, No Iterations 5
smoothSolver:  Solving for Uy, Initial residual = 0.0349936, Final residual = 0.00231525, No Iterations 5
Pressure gradient source: uncorrected Ubar = 1.00059, pressure gradient = -0.281409
GAMG:  Solving for p, Initial residual = 0.0692166, Final residual = 0.00542717, No Iterations 5
time step continuity errors : sum local = 1.89348e-05, global = 3.4244e-19, cumulative = 3.21674e-17
Pressure gradient source: uncorrected Ubar = 1.00006, pressure gradient = -0.0627025
smoothSolver:  Solving for omega, Initial residual = 8.64334e-06, Final residual = 8.64334e-06, No Iterations 0
smoothSolver:  Solving for k, Initial residual = 0.0104062, Final residual = 0.000798692, No Iterations 6
ExecutionTime = 0.110304 s  ClockTime = 0 s

Time = 38s

smoothSolver:  Solving for Ux, Initial residual = 0.00711089, Final residual = 0.000702241, No Iterations 5
smoothSolver:  Solving for Uy, Initial residual = 0.0325773, Final residual = 0.00221138, No Iterations 5
Pressure gradient source: uncorrected Ubar = 1.00057, pressure gradient = -0.297676
GAMG:  Solving for p, Initial residual = 0.0649212, Final residual = 0.00642223, No Iterations 4
time step continuity errors : sum local = 2.12828e-05, global = -4.8018e-18, cumulative = 2.73655e-17
Pressure gradient source: uncorrected Ubar = 1.00006, pressure gradient = -0.0856284
smoothSolver:  Solving for omega, Initial residual = 8.69913e-06, Final residual = 8.69913e-06, No Iterations 0
smoothSolver:  Solving for k, Initial residual = 0.0105651, Final residual = 0.000809904, No Iterations 6
ExecutionTime = 0.11279 s  ClockTime = 0 s

Time = 39s

smoothSolver:  Solving for Ux, Initial residual = 0.00698034, Final residual = 0.000466155, No Iterations 6
smoothSolver:  Solving for Uy, Initial residual = 0.0315034, Final residual = 0.00302186, No Iterations 4
Pressure gradient source: uncorrected Ubar = 1.00047, pressure gradient = -0.278438
GAMG:  Solving for p, Initial residual = 0.063757, Final residual = 0.00526292, No Iterations 3
time step continuity errors : sum local = 1.6898e-05, global = -6.91348e-18, cumulative = 2.04521e-17
Pressure gradient source: uncorrected Ubar = 1.00005, pressure gradient = -0.104162
smoothSolver:  Solving for omega, Initial residual = 8.7245e-06, Final residual = 8.7245e-06, No Iterations 0
smoothSolver:  Solving for k, Initial residual = 0.0106357, Final residual = 0.000815633, No Iterations 6
ExecutionTime = 0.115283 s  ClockTime = 0 s

Time = 40s

smoothSolver:  Solving for Ux, Initial residual = 0.00685855, Final residual = 0.000466827, No Iterations 6
smoothSolver:  Solving for Uy, Initial residual = 0.0306499, Final residual = 0.00287483, No Iterations 4
Pressure gradient source: uncorrected Ubar = 1.00047, pressure gradient = -0.296188
GAMG:  Solving for p, Initial residual = 0.0597475, Final residual = 0.00540885, No Iterations 5
time step continuity errors : sum local = 1.72944e-05, global = -3.95207e-18, cumulative = 1.65e-17
Pressure gradient source: uncorrected Ubar = 1.00005, pressure gradient = -0.122834
smoothSolver:  Solving for omega, Initial residual = 8.74498e-06, Final residual = 8.74498e-06, No Iterations 0
smoothSolver:  Solving for k, Initial residual = 0.0107262, Final residual = 0.00082141, No Iterations 6
ExecutionTime = 0.117824 s  ClockTime = 0 s

Time = 41s

smoothSolver:  Solving for Ux, Initial residual = 0.00661836, Final residual = 0.00046214, No Iterations 6
smoothSolver:  Solving for Uy, Initial residual = 0.0315542, Final residual = 0.00255205, No Iterations 4
Pressure gradient source: uncorrected Ubar = 1.00049, pressure gradient = -0.322396
GAMG:  Solving for p, Initial residual = 0.0608781, Final residual = 0.00589356, No Iterations 5
time step continuity errors : sum local = 1.94433e-05, global = 7.35754e-18, cumulative = 2.38575e-17
Pressure gradient source: uncorrected Ubar = 1.00005, pressure gradient = -0.142771
smoothSolver:  Solving for omega, Initial residual = 8.75188e-06, Final residual = 8.75188e-06, No Iterations 0
smoothSolver:  Solving for k, Initial residual = 0.0107969, Final residual = 0.00082351, No Iterations 6
ExecutionTime = 0.120383 s  ClockTime = 0 s

Time = 42s

smoothSolver:  Solving for Ux, Initial residual = 0.0064315, Final residual = 0.000457774, No Iterations 6
smoothSolver:  Solving for Uy, Initial residual = 0.0278732, Final residual = 0.00225737, No Iterations 4
Pressure gradient source: uncorrected Ubar = 1.00047, pressure gradient = -0.330944
GAMG:  Solving for p, Initial residual = 0.0592525, Final residual = 0.00572216, No Iterations 3
time step continuity errors : sum local = 1.8759e-05, global = 6.24819e-18, cumulative = 3.01057e-17
Pressure gradient source: uncorrected Ubar = 1.00005, pressure gradient = -0.161582
smoothSolver:  Solving for omega, Initial residual = 8.73353e-06, Final residual = 8.73353e-06, No Iterations 0
smoothSolver:  Solving for k, Initial residual = 0.0109452, Final residual = 0.000826837, No Iterations 6
ExecutionTime = 0.12285 s  ClockTime = 1 s

Time = 43s

smoothSolver:  Solving for Ux, Initial residual = 0.00637361, Final residual = 0.000461479, No Iterations 6
smoothSolver:  Solving for Uy, Initial residual = 0.0271649, Final residual = 0.00194111, No Iterations 4
Pressure gradient source: uncorrected Ubar = 1.0004, pressure gradient = -0.32009
GAMG:  Solving for p, Initial residual = 0.0586557, Final residual = 0.00572006, No Iterations 3
time step continuity errors : sum local = 1.81276e-05, global = 2.93899e-18, cumulative = 3.30447e-17
Pressure gradient source: uncorrected Ubar = 1.00004, pressure gradient = -0.176843
smoothSolver:  Solving for omega, Initial residual = 8.7211e-06, Final residual = 8.7211e-06, No Iterations 0
smoothSolver:  Solving for k, Initial residual = 0.0109118, Final residual = 0.000828266, No Iterations 6
ExecutionTime = 0.125315 s  ClockTime = 1 s

Time = 44s

smoothSolver:  Solving for Ux, Initial residual = 0.00629529, Final residual = 0.000462466, No Iterations 6
smoothSolver:  Solving for Uy, Initial residual = 0.0269587, Final residual = 0.00184674, No Iterations 4
Pressure gradient source: uncorrected Ubar = 1.00039, pressure gradient = -0.33243
GAMG:  Solving for p, Initial residual = 0.0558289, Final residual = 0.00447746, No Iterations 5
time step continuity errors : sum local = 1.40798e-05, global = -3.86843e-18, cumulative = 2.91763e-17
Pressure gradient source: uncorrected Ubar = 1.00004, pressure gradient = -0.191977
smoothSolver:  Solving for omega, Initial residual = 8.71927e-06, Final residual = 8.71927e-06, No Iterations 0
smoothSolver:  Solving for k, Initial residual = 0.0109431, Final residual = 0.000827618, No Iterations 6
ExecutionTime = 0.127866 s  ClockTime = 1 s

Time = 45s

smoothSolver:  Solving for Ux, Initial residual = 0.00613308, Final residual = 0.000458033, No Iterations 6
smoothSolver:  Solving for Uy, Initial residual = 0.0283645, Final residual = 0.00268107, No Iterations 3
Pressure gradient source: uncorrected Ubar = 1.00041, pressure gradient = -0.350726
GAMG:  Solving for p, Initial residual = 0.056425, Final residual = 0.00515784, No Iterations 6
time step continuity errors : sum local = 1.62352e-05, global = -2.18487e-18, cumulative = 2.69914e-17
Pressure gradient source: uncorrected Ubar = 1.00004, pressure gradient = -0.207818
smoothSolver:  Solving for omega, Initial residual = 8.73096e-06, Final residual = 8.73096e-06, No Iterations 0
smoothSolver:  Solving for k, Initial residual = 0.0109535, Final residual = 0.000827042, No Iterations 6
ExecutionTime = 0.13049 s  ClockTime = 1 s

Time = 46s

smoothSolver:  Solving for Ux, Initial residual = 0.00587511, Final residual = 0.000449921, No Iterations 6
smoothSolver:  Solving for Uy, Initial residual = 0.0264272, Final residual = 0.00253186, No Iterations 3
Pressure gradient source: uncorrected Ubar = 1.0004, pressure gradient = -0.361543
GAMG:  Solving for p, Initial residual = 0.0579846, Final residual = 0.00470358, No Iterations 5
time step continuity errors : sum local = 1.43219e-05, global = 2.99429e-18, cumulative = 2.99857e-17
Pressure gradient source: uncorrected Ubar = 1.00004, pressure gradient = -0.223349
smoothSolver:  Solving for omega, Initial residual = 8.70611e-06, Final residual = 8.70611e-06, No Iterations 0
smoothSolver:  Solving for k, Initial residual = 0.0110407, Final residual = 0.000825619, No Iterations 6
ExecutionTime = 0.133023 s  ClockTime = 1 s

Time = 47s

smoothSolver:  Solving for Ux, Initial residual = 0.00583343, Final residual = 0.00045212, No Iterations 6
smoothSolver:  Solving for Uy, Initial residual = 0.0266996, Final residual = 0.00242721, No Iterations 3
Pressure gradient source: uncorrected Ubar = 1.00031, pressure gradient = -0.342401
GAMG:  Solving for p, Initial residual = 0.0559852, Final residual = 0.00515101, No Iterations 3
time step continuity errors : sum local = 1.53201e-05, global = 4.49786e-18, cumulative = 3.44836e-17
Pressure gradient source: uncorrected Ubar = 1.00003, pressure gradient = -0.234636
smoothSolver:  Solving for omega, Initial residual = 8.6603e-06, Final residual = 8.6603e-06, No Iterations 0
smoothSolver:  Solving for k, Initial residual = 0.0109434, Final residual = 0.000824335, No Iterations 6
ExecutionTime = 0.13549 s  ClockTime = 1 s

Time = 48s

smoothSolver:  Solving for Ux, Initial residual = 0.00578917, Final residual = 0.000453172, No Iterations 6
smoothSolver:  Solving for Uy, Initial residual = 0.0265557, Final residual = 0.00163448, No Iterations 4
Pressure gradient source: uncorrected Ubar = 1.0003, pressure gradient = -0.345476
GAMG:  Solving for p, Initial residual = 0.0545587, Final residual = 0.00452556, No Iterations 5
time step continuity errors : sum local = 1.34641e-05, global = -5.63383e-18, cumulative = 2.88498e-17
Pressure gradient source: uncorrected Ubar = 1.00003, pressure gradient = -0.245091
smoothSolver:  Solving for omega, Initial residual = 8.60171e-06, Final residual = 8.60171e-06, No Iterations 0
smoothSolver:  Solving for k, Initial residual = 0.0108724, Final residual = 0.000816016, No Iterations 6
ExecutionTime = 0.138098 s  ClockTime = 1 s

Time = 49s

smoothSolver:  Solving for Ux, Initial residual = 0.00568738, Final residual = 0.000450762, No Iterations 6
smoothSolver:  Solving for Uy, Initial residual = 0.0266864, Final residual = 0.00179194, No Iterations 4
Pressure gradient source: uncorrected Ubar = 1.00029, pressure gradient = -0.352965
GAMG:  Solving for p, Initial residual = 0.0549628, Final residual = 0.00509622, No Iterations 5
time step continuity errors : sum local = 1.56501e-05, global = 1.36517e-18, cumulative = 3.02149e-17
Pressure gradient source: uncorrected Ubar = 1.00003, pressure gradient = -0.255425
smoothSolver:  Solving for omega, Initial residual = 8.54243e-06, Final residual = 8.54243e-06, No Iterations 0
smoothSolver:  Solving for k, Initial residual = 0.0107251, Final residual = 0.000803743, No Iterations 6
ExecutionTime = 0.140634 s  ClockTime = 1 s

Time = 50s

smoothSolver:  Solving for Ux, Initial residual = 0.00551297, Final residual = 0.000442963, No Iterations 6
smoothSolver:  Solving for Uy, Initial residual = 0.0271005, Final residual = 0.00181426, No Iterations 4
Pressure gradient source: uncorrected Ubar = 1.0003, pressure gradient = -0.363162
GAMG:  Solving for p, Initial residual = 0.0578035, Final residual = 0.00526774, No Iterations 7
time step continuity errors : sum local = 1.61585e-05, global = -3.17489e-18, cumulative = 2.704e-17
Pressure gradient source: uncorrected Ubar = 1.00003, pressure gradient = -0.266044
smoothSolver:  Solving for omega, Initial residual = 8.4832e-06, Final residual = 8.4832e-06, No Iterations 0
smoothSolver:  Solving for k, Initial residual = 0.0105266, Final residual = 0.00078799, No Iterations 6
ExecutionTime = 0.143271 s  ClockTime = 1 s

Time = 51s

smoothSolver:  Solving for Ux, Initial residual = 0.00527077, Final residual = 0.000432814, No Iterations 6
smoothSolver:  Solving for Uy, Initial residual = 0.0243096, Final residual = 0.00173343, No Iterations 4
Pressure gradient source: uncorrected Ubar = 1.00028, pressure gradient = -0.363831
GAMG:  Solving for p, Initial residual = 0.0594823, Final residual = 0.00578753, No Iterations 6
time step continuity errors : sum local = 1.64849e-05, global = -8.41636e-18, cumulative = 1.86237e-17
Pressure gradient source: uncorrected Ubar = 1.00003, pressure gradient = -0.275655
smoothSolver:  Solving for omega, Initial residual = 8.40719e-06, Final residual = 8.40719e-06, No Iterations 0
smoothSolver:  Solving for k, Initial residual = 0.0103449, Final residual = 0.000773956, No Iterations 6
ExecutionTime = 0.1459 s  ClockTime = 1 s

Time = 52s

smoothSolver:  Solving for Ux, Initial residual = 0.00522568, Final residual = 0.00043251, No Iterations 6
smoothSolver:  Solving for Uy, Initial residual = 0.0250012, Final residual = 0.00228364, No Iterations 4
Pressure gradient source: uncorrected Ubar = 1.00019, pressure gradient = -0.342882
GAMG:  Solving for p, Initial residual = 0.0565432, Final residual = 0.00548445, No Iterations 3
time step continuity errors : sum local = 1.52848e-05, global = 6.87971e-18, cumulative = 2.55034e-17
Pressure gradient source: uncorrected Ubar = 1.00002, pressure gradient = -0.281436
smoothSolver:  Solving for omega, Initial residual = 8.37363e-06, Final residual = 8.37363e-06, No Iterations 0
smoothSolver:  Solving for k, Initial residual = 0.0101054, Final residual = 0.000758019, No Iterations 6
ExecutionTime = 0.148336 s  ClockTime = 1 s

Time = 53s

smoothSolver:  Solving for Ux, Initial residual = 0.00517514, Final residual = 0.000431371, No Iterations 6
smoothSolver:  Solving for Uy, Initial residual = 0.0259337, Final residual = 0.00258624, No Iterations 4
Pressure gradient source: uncorrected Ubar = 1.00017, pressure gradient = -0.340147
GAMG:  Solving for p, Initial residual = 0.0537712, Final residual = 0.00466522, No Iterations 5
time step continuity errors : sum local = 1.31742e-05, global = -2.353e-18, cumulative = 2.31504e-17
Pressure gradient source: uncorrected Ubar = 1.00001, pressure gradient = -0.286294
smoothSolver:  Solving for omega, Initial residual = 8.31242e-06, Final residual = 8.31242e-06, No Iterations 0
smoothSolver:  Solving for k, Initial residual = 0.00986923, Final residual = 0.000740098, No Iterations 6
ExecutionTime = 0.150901 s  ClockTime = 1 s

Time = 54s

smoothSolver:  Solving for Ux, Initial residual = 0.00508878, Final residual = 0.000427321, No Iterations 6
smoothSolver:  Solving for Uy, Initial residual = 0.026192, Final residual = 0.00183509, No Iterations 5
Pressure gradient source: uncorrected Ubar = 1.00016, pressure gradient = -0.339423
GAMG:  Solving for p, Initial residual = 0.0536266, Final residual = 0.00495578, No Iterations 5
time step continuity errors : sum local = 1.45357e-05, global = 3.4384e-18, cumulative = 2.65888e-17
Pressure gradient source: uncorrected Ubar = 1.00001, pressure gradient = -0.290625
smoothSolver:  Solving for omega, Initial residual = 8.15116e-06, Final residual = 8.15116e-06, No Iterations 0
smoothSolver:  Solving for k, Initial residual = 0.00962172, Final residual = 0.000721227, No Iterations 6
ExecutionTime = 0.153456 s  ClockTime = 1 s

Time = 55s

smoothSolver:  Solving for Ux, Initial residual = 0.00495127, Final residual = 0.000419421, No Iterations 6
smoothSolver:  Solving for Uy, Initial residual = 0.0259142, Final residual = 0.00184355, No Iterations 5
Pressure gradient source: uncorrected Ubar = 1.00015, pressure gradient = -0.339969
GAMG:  Solving for p, Initial residual = 0.0552291, Final residual = 0.00521668, No Iterations 8
time step continuity errors : sum local = 1.57015e-05, global = 8.26114e-18, cumulative = 3.48499e-17
Pressure gradient source: uncorrected Ubar = 1.00001, pressure gradient = -0.294679
smoothSolver:  Solving for omega, Initial residual = 7.99865e-06, Final residual = 7.99865e-06, No Iterations 0
smoothSolver:  Solving for k, Initial residual = 0.00934665, Final residual = 0.00070363, No Iterations 6
ExecutionTime = 0.156197 s  ClockTime = 1 s

Time = 56s

smoothSolver:  Solving for Ux, Initial residual = 0.0047486, Final residual = 0.000407419, No Iterations 6
smoothSolver:  Solving for Uy, Initial residual = 0.0263277, Final residual = 0.00182653, No Iterations 5
Pressure gradient source: uncorrected Ubar = 1.00015, pressure gradient = -0.341346
GAMG:  Solving for p, Initial residual = 0.0584947, Final residual = 0.00579771, No Iterations 9
time step continuity errors : sum local = 1.69895e-05, global = 9.04155e-18, cumulative = 4.38915e-17
Pressure gradient source: uncorrected Ubar = 1.00001, pressure gradient = -0.298613
smoothSolver:  Solving for omega, Initial residual = 7.94676e-06, Final residual = 7.94676e-06, No Iterations 0
smoothSolver:  Solving for k, Initial residual = 0.00905776, Final residual = 0.00068396, No Iterations 6
ExecutionTime = 0.158945 s  ClockTime = 1 s

Time = 57s

smoothSolver:  Solving for Ux, Initial residual = 0.00457713, Final residual = 0.000397194, No Iterations 6
smoothSolver:  Solving for Uy, Initial residual = 0.0225711, Final residual = 0.0015193, No Iterations 5
Pressure gradient source: uncorrected Ubar = 1.0001, pressure gradient = -0.330432
GAMG:  Solving for p, Initial residual = 0.0587349, Final residual = 0.00564475, No Iterations 7
time step continuity errors : sum local = 1.50597e-05, global = 7.37292e-18, cumulative = 5.12644e-17
Pressure gradient source: uncorrected Ubar = 1.00001, pressure gradient = -0.300732
smoothSolver:  Solving for omega, Initial residual = 7.71419e-06, Final residual = 7.71419e-06, No Iterations 0
smoothSolver:  Solving for k, Initial residual = 0.0087795, Final residual = 0.000666777, No Iterations 6
ExecutionTime = 0.16167 s  ClockTime = 1 s

Time = 58s

smoothSolver:  Solving for Ux, Initial residual = 0.00450075, Final residual = 0.000392134, No Iterations 6
smoothSolver:  Solving for Uy, Initial residual = 0.0229658, Final residual = 0.00191923, No Iterations 5
Pressure gradient source: uncorrected Ubar = 1.00005, pressure gradient = -0.316808
GAMG:  Solving for p, Initial residual = 0.0551598, Final residual = 0.00502764, No Iterations 5
time step continuity errors : sum local = 1.28105e-05, global = 1.75366e-18, cumulative = 5.3018e-17
Pressure gradient source: uncorrected Ubar = 1, pressure gradient = -0.300851
smoothSolver:  Solving for omega, Initial residual = 7.67349e-06, Final residual = 7.67349e-06, No Iterations 0
smoothSolver:  Solving for k, Initial residual = 0.00850764, Final residual = 0.000649728, No Iterations 6
ExecutionTime = 0.164252 s  ClockTime = 1 s

Time = 59s

smoothSolver:  Solving for Ux, Initial residual = 0.00443011, Final residual = 0.000387146, No Iterations 6
smoothSolver:  Solving for Uy, Initial residual = 0.024267, Final residual = 0.00208259, No Iterations 5
Pressure gradient source: uncorrected Ubar = 1.00003, pressure gradient = -0.309996
GAMG:  Solving for p, Initial residual = 0.0524444, Final residual = 0.00429244, No Iterations 5
time step continuity errors : sum local = 1.14413e-05, global = 3.23563e-18, cumulative = 5.62537e-17
Pressure gradient source: uncorrected Ubar = 0.999998, pressure gradient = -0.300157
smoothSolver:  Solving for omega, Initial residual = 7.55329e-06, Final residual = 7.55329e-06, No Iterations 0
smoothSolver:  Solving for k, Initial residual = 0.00824538, Final residual = 0.000632316, No Iterations 6
ExecutionTime = 0.166823 s  ClockTime = 1 s

Time = 60s

smoothSolver:  Solving for Ux, Initial residual = 0.00434376, Final residual = 0.000380836, No Iterations 6
smoothSolver:  Solving for Uy, Initial residual = 0.0246866, Final residual = 0.00214732, No Iterations 5
Pressure gradient source: uncorrected Ubar = 1.00002, pressure gradient = -0.305275
GAMG:  Solving for p, Initial residual = 0.0499205, Final residual = 0.00341979, No Iterations 4
time step continuity errors : sum local = 9.18202e-06, global = -1.92543e-18, cumulative = 5.43283e-17
Pressure gradient source: uncorrected Ubar = 0.999996, pressure gradient = -0.299042
smoothSolver:  Solving for omega, Initial residual = 7.42462e-06, Final residual = 7.42462e-06, No Iterations 0
smoothSolver:  Solving for k, Initial residual = 0.00799129, Final residual = 0.000614877, No Iterations 6
ExecutionTime = 0.169321 s  ClockTime = 1 s

Time = 61s

smoothSolver:  Solving for Ux, Initial residual = 0.00423079, Final residual = 0.000372357, No Iterations 6
smoothSolver:  Solving for Uy, Initial residual = 0.0245738, Final residual = 0.00220022, No Iterations 5
Pressure gradient source: uncorrected Ubar = 1.00001, pressure gradient = -0.301654
GAMG:  Solving for p, Initial residual = 0.0485601, Final residual = 0.00461918, No Iterations 5
time step continuity errors : sum local = 1.29192e-05, global = -1.41988e-18, cumulative = 5.29084e-17
Pressure gradient source: uncorrected Ubar = 0.999995, pressure gradient = -0.297712
smoothSolver:  Solving for omega, Initial residual = 7.38989e-06, Final residual = 7.38989e-06, No Iterations 0
smoothSolver:  Solving for k, Initial residual = 0.00770924, Final residual = 0.000593398, No Iterations 6
ExecutionTime = 0.171894 s  ClockTime = 1 s

Time = 62s

smoothSolver:  Solving for Ux, Initial residual = 0.0040841, Final residual = 0.000361431, No Iterations 6
smoothSolver:  Solving for Uy, Initial residual = 0.0251156, Final residual = 0.0021703, No Iterations 5
Pressure gradient source: uncorrected Ubar = 1.00001, pressure gradient = -0.299324
GAMG:  Solving for p, Initial residual = 0.0515616, Final residual = 0.00503043, No Iterations 9
time step continuity errors : sum local = 1.41117e-05, global = -1.76056e-18, cumulative = 5.11478e-17
Pressure gradient source: uncorrected Ubar = 0.999995, pressure gradient = -0.296375
smoothSolver:  Solving for omega, Initial residual = 7.33233e-06, Final residual = 7.33233e-06, No Iterations 0
smoothSolver:  Solving for k, Initial residual = 0.00742516, Final residual = 0.00057527, No Iterations 6
ExecutionTime = 0.174669 s  ClockTime = 1 s

Time = 63s

smoothSolver:  Solving for Ux, Initial residual = 0.00391407, Final residual = 0.000348671, No Iterations 6
smoothSolver:  Solving for Uy, Initial residual = 0.0236852, Final residual = 0.00191685, No Iterations 5
Pressure gradient source: uncorrected Ubar = 0.999998, pressure gradient = -0.295762
GAMG:  Solving for p, Initial residual = 0.0525344, Final residual = 0.0047645, No Iterations 9
time step continuity errors : sum local = 1.2629e-05, global = -9.67404e-19, cumulative = 5.01804e-17
Pressure gradient source: uncorrected Ubar = 0.999994, pressure gradient = -0.294855
smoothSolver:  Solving for omega, Initial residual = 7.30323e-06, Final residual = 7.30323e-06, No Iterations 0
smoothSolver:  Solving for k, Initial residual = 0.0071541, Final residual = 0.000558939, No Iterations 6
ExecutionTime = 0.177417 s  ClockTime = 1 s

Time = 64s

smoothSolver:  Solving for Ux, Initial residual = 0.00379818, Final residual = 0.000339566, No Iterations 6
smoothSolver:  Solving for Uy, Initial residual = 0.0207763, Final residual = 0.00179924, No Iterations 5
Pressure gradient source: uncorrected Ubar = 0.999968, pressure gradient = -0.286465
GAMG:  Solving for p, Initial residual = 0.0496463, Final residual = 0.0049612, No Iterations 5
time step continuity errors : sum local = 1.1998e-05, global = -4.91523e-18, cumulative = 4.52652e-17
Pressure gradient source: uncorrected Ubar = 0.99999, pressure gradient = -0.292346
smoothSolver:  Solving for omega, Initial residual = 7.26991e-06, Final residual = 7.26991e-06, No Iterations 0
smoothSolver:  Solving for k, Initial residual = 0.00690722, Final residual = 0.000542707, No Iterations 6
ExecutionTime = 0.179965 s  ClockTime = 1 s

Time = 65s

smoothSolver:  Solving for Ux, Initial residual = 0.00370152, Final residual = 0.000331765, No Iterations 6
smoothSolver:  Solving for Uy, Initial residual = 0.0206352, Final residual = 0.00203989, No Iterations 5
Pressure gradient source: uncorrected Ubar = 0.999958, pressure gradient = -0.281766
GAMG:  Solving for p, Initial residual = 0.0487609, Final residual = 0.00478464, No Iterations 4
time step continuity errors : sum local = 1.14977e-05, global = 4.40861e-19, cumulative = 4.5706e-17
Pressure gradient source: uncorrected Ubar = 0.999989, pressure gradient = -0.28961
smoothSolver:  Solving for omega, Initial residual = 7.23225e-06, Final residual = 7.23225e-06, No Iterations 0
smoothSolver:  Solving for k, Initial residual = 0.00666901, Final residual = 0.000527303, No Iterations 6
ExecutionTime = 0.182469 s  ClockTime = 1 s

Time = 66s

smoothSolver:  Solving for Ux, Initial residual = 0.00360578, Final residual = 0.000324004, No Iterations 6
smoothSolver:  Solving for Uy, Initial residual = 0.0205882, Final residual = 0.0014872, No Iterations 6
Pressure gradient source: uncorrected Ubar = 0.999955, pressure gradient = -0.27829
GAMG:  Solving for p, Initial residual = 0.0416343, Final residual = 0.00185623, No Iterations 4
time step continuity errors : sum local = 4.87021e-06, global = -1.44006e-18, cumulative = 4.4266e-17
Pressure gradient source: uncorrected Ubar = 0.999989, pressure gradient = -0.286837
smoothSolver:  Solving for omega, Initial residual = 7.19496e-06, Final residual = 7.19496e-06, No Iterations 0
smoothSolver:  Solving for k, Initial residual = 0.00643649, Final residual = 0.000511529, No Iterations 6
ExecutionTime = 0.184994 s  ClockTime = 1 s

Time = 67s

smoothSolver:  Solving for Ux, Initial residual = 0.00352446, Final residual = 0.000317196, No Iterations 6
smoothSolver:  Solving for Uy, Initial residual = 0.0206014, Final residual = 0.0014711, No Iterations 6
Pressure gradient source: uncorrected Ubar = 0.999944, pressure gradient = -0.273048
GAMG:  Solving for p, Initial residual = 0.0378047, Final residual = 0.00270398, No Iterations 3
time step continuity errors : sum local = 6.93419e-06, global = -1.33525e-17, cumulative = 3.09135e-17
Pressure gradient source: uncorrected Ubar = 0.999988, pressure gradient = -0.283776
smoothSolver:  Solving for omega, Initial residual = 7.16723e-06, Final residual = 7.16723e-06, No Iterations 0
smoothSolver:  Solving for k, Initial residual = 0.00621817, Final residual = 0.000496833, No Iterations 6
ExecutionTime = 0.18747 s  ClockTime = 1 s

Time = 68s

smoothSolver:  Solving for Ux, Initial residual = 0.0034448, Final residual = 0.000310344, No Iterations 6
smoothSolver:  Solving for Uy, Initial residual = 0.0203891, Final residual = 0.00144053, No Iterations 6
Pressure gradient source: uncorrected Ubar = 0.999942, pressure gradient = -0.269703
GAMG:  Solving for p, Initial residual = 0.038141, Final residual = 0.0036539, No Iterations 5
time step continuity errors : sum local = 9.72652e-06, global = -5.70951e-18, cumulative = 2.5204e-17
Pressure gradient source: uncorrected Ubar = 0.999987, pressure gradient = -0.280732
smoothSolver:  Solving for omega, Initial residual = 7.13837e-06, Final residual = 7.13837e-06, No Iterations 0
smoothSolver:  Solving for k, Initial residual = 0.00600885, Final residual = 0.000481069, No Iterations 6
ExecutionTime = 0.190034 s  ClockTime = 1 s

Time = 69s

smoothSolver:  Solving for Ux, Initial residual = 0.00336218, Final residual = 0.000302808, No Iterations 6
smoothSolver:  Solving for Uy, Initial residual = 0.0197196, Final residual = 0.00139075, No Iterations 6
Pressure gradient source: uncorrected Ubar = 0.99994, pressure gradient = -0.266447
GAMG:  Solving for p, Initial residual = 0.0401886, Final residual = 0.00385856, No Iterations 8
time step continuity errors : sum local = 1.03539e-05, global = 2.27598e-18, cumulative = 2.748e-17
Pressure gradient source: uncorrected Ubar = 0.999987, pressure gradient = -0.277713
smoothSolver:  Solving for omega, Initial residual = 7.11626e-06, Final residual = 7.11626e-06, No Iterations 0
smoothSolver:  Solving for k, Initial residual = 0.00580221, Final residual = 0.000464677, No Iterations 6
ExecutionTime = 0.192764 s  ClockTime = 1 s

Time = 70s

smoothSolver:  Solving for Ux, Initial residual = 0.00326198, Final residual = 0.000294628, No Iterations 6
smoothSolver:  Solving for Uy, Initial residual = 0.0191031, Final residual = 0.00190273, No Iterations 5
Pressure gradient source: uncorrected Ubar = 0.999943, pressure gradient = -0.264366
GAMG:  Solving for p, Initial residual = 0.0403593, Final residual = 0.00371605, No Iterations 10
time step continuity errors : sum local = 9.65446e-06, global = 5.82632e-18, cumulative = 3.33063e-17
Pressure gradient source: uncorrected Ubar = 0.999988, pressure gradient = -0.274881
smoothSolver:  Solving for omega, Initial residual = 7.09921e-06, Final residual = 7.09921e-06, No Iterations 0
smoothSolver:  Solving for k, Initial residual = 0.00559686, Final residual = 0.000449317, No Iterations 6
ExecutionTime = 0.195558 s  ClockTime = 1 s

Time = 71s

smoothSolver:  Solving for Ux, Initial residual = 0.0031503, Final residual = 0.000286072, No Iterations 6
smoothSolver:  Solving for Uy, Initial residual = 0.0181731, Final residual = 0.00163541, No Iterations 5
Pressure gradient source: uncorrected Ubar = 0.999947, pressure gradient = -0.262605
GAMG:  Solving for p, Initial residual = 0.0415309, Final residual = 0.00410806, No Iterations 8
time step continuity errors : sum local = 9.79819e-06, global = 4.58679e-18, cumulative = 3.78931e-17
Pressure gradient source: uncorrected Ubar = 0.999989, pressure gradient = -0.272256
smoothSolver:  Solving for omega, Initial residual = 7.09849e-06, Final residual = 7.09849e-06, No Iterations 0
smoothSolver:  Solving for k, Initial residual = 0.00538841, Final residual = 0.000434476, No Iterations 6
ExecutionTime = 0.19826 s  ClockTime = 1 s

Time = 72s

smoothSolver:  Solving for Ux, Initial residual = 0.00306096, Final residual = 0.000278965, No Iterations 6
smoothSolver:  Solving for Uy, Initial residual = 0.0166466, Final residual = 0.00142182, No Iterations 5
Pressure gradient source: uncorrected Ubar = 0.99994, pressure gradient = -0.258395
GAMG:  Solving for p, Initial residual = 0.0405561, Final residual = 0.00371501, No Iterations 8
time step continuity errors : sum local = 8.10462e-06, global = -7.26376e-18, cumulative = 3.06293e-17
Pressure gradient source: uncorrected Ubar = 0.999988, pressure gradient = -0.269456
smoothSolver:  Solving for omega, Initial residual = 7.07081e-06, Final residual = 7.07081e-06, No Iterations 0
smoothSolver:  Solving for k, Initial residual = 0.0052032, Final residual = 0.000420307, No Iterations 6
ExecutionTime = 0.200948 s  ClockTime = 1 s

Time = 73s

smoothSolver:  Solving for Ux, Initial residual = 0.00300506, Final residual = 0.000274006, No Iterations 6
smoothSolver:  Solving for Uy, Initial residual = 0.017275, Final residual = 0.00116265, No Iterations 6
Pressure gradient source: uncorrected Ubar = 0.999932, pressure gradient = -0.253881
GAMG:  Solving for p, Initial residual = 0.0421937, Final residual = 0.00319522, No Iterations 4
time step continuity errors : sum local = 7.50704e-06, global = 5.1816e-18, cumulative = 3.58109e-17
Pressure gradient source: uncorrected Ubar = 0.999987, pressure gradient = -0.266452
smoothSolver:  Solving for omega, Initial residual = 7.02904e-06, Final residual = 7.02904e-06, No Iterations 0
smoothSolver:  Solving for k, Initial residual = 0.00503703, Final residual = 0.000407221, No Iterations 6
ExecutionTime = 0.203486 s  ClockTime = 1 s

Time = 74s

smoothSolver:  Solving for Ux, Initial residual = 0.00295084, Final residual = 0.000269179, No Iterations 6
smoothSolver:  Solving for Uy, Initial residual = 0.0172043, Final residual = 0.00127104, No Iterations 6
Pressure gradient source: uncorrected Ubar = 0.999938, pressure gradient = -0.252384
GAMG:  Solving for p, Initial residual = 0.0364273, Final residual = 0.00298362, No Iterations 3
time step continuity errors : sum local = 7.49261e-06, global = 1.58014e-18, cumulative = 3.73911e-17
Pressure gradient source: uncorrected Ubar = 0.999988, pressure gradient = -0.263693
smoothSolver:  Solving for omega, Initial residual = 6.99478e-06, Final residual = 6.99478e-06, No Iterations 0
smoothSolver:  Solving for k, Initial residual = 0.00487132, Final residual = 0.000393989, No Iterations 6
ExecutionTime = 0.205975 s  ClockTime = 1 s

Time = 75s

smoothSolver:  Solving for Ux, Initial residual = 0.0028948, Final residual = 0.000264229, No Iterations 6
smoothSolver:  Solving for Uy, Initial residual = 0.0168094, Final residual = 0.00129528, No Iterations 6
Pressure gradient source: uncorrected Ubar = 0.999941, pressure gradient = -0.250556
GAMG:  Solving for p, Initial residual = 0.0346165, Final residual = 0.00147555, No Iterations 4
time step continuity errors : sum local = 3.88828e-06, global = -7.35585e-18, cumulative = 3.00352e-17
Pressure gradient source: uncorrected Ubar = 0.999988, pressure gradient = -0.261094
smoothSolver:  Solving for omega, Initial residual = 6.97911e-06, Final residual = 6.97911e-06, No Iterations 0
smoothSolver:  Solving for k, Initial residual = 0.0047063, Final residual = 0.000381555, No Iterations 6
ExecutionTime = 0.208482 s  ClockTime = 1 s

Time = 76s

smoothSolver:  Solving for Ux, Initial residual = 0.00283704, Final residual = 0.000259087, No Iterations 6
smoothSolver:  Solving for Uy, Initial residual = 0.0161227, Final residual = 0.00129553, No Iterations 6
Pressure gradient source: uncorrected Ubar = 0.999944, pressure gradient = -0.248591
GAMG:  Solving for p, Initial residual = 0.0319763, Final residual = 0.00306795, No Iterations 2
time step continuity errors : sum local = 6.97991e-06, global = 2.13982e-19, cumulative = 3.02492e-17
Pressure gradient source: uncorrected Ubar = 0.999989, pressure gradient = -0.25861
smoothSolver:  Solving for omega, Initial residual = 6.95983e-06, Final residual = 6.95983e-06, No Iterations 0
smoothSolver:  Solving for k, Initial residual = 0.00454334, Final residual = 0.000368143, No Iterations 6
ExecutionTime = 0.210912 s  ClockTime = 1 s

Time = 77s

smoothSolver:  Solving for Ux, Initial residual = 0.00277425, Final residual = 0.000253946, No Iterations 6
smoothSolver:  Solving for Uy, Initial residual = 0.0151693, Final residual = 0.00124639, No Iterations 6
Pressure gradient source: uncorrected Ubar = 0.999947, pressure gradient = -0.246992
GAMG:  Solving for p, Initial residual = 0.0302088, Final residual = 0.00251744, No Iterations 3
time step continuity errors : sum local = 5.97967e-06, global = 7.18808e-18, cumulative = 3.74373e-17
Pressure gradient source: uncorrected Ubar = 0.999989, pressure gradient = -0.256276
smoothSolver:  Solving for omega, Initial residual = 6.93373e-06, Final residual = 6.93373e-06, No Iterations 0
smoothSolver:  Solving for k, Initial residual = 0.00437794, Final residual = 0.000355639, No Iterations 6
ExecutionTime = 0.213421 s  ClockTime = 1 s

Time = 78s

smoothSolver:  Solving for Ux, Initial residual = 0.00271194, Final residual = 0.000248873, No Iterations 6
smoothSolver:  Solving for Uy, Initial residual = 0.0142011, Final residual = 0.0011854, No Iterations 6
Pressure gradient source: uncorrected Ubar = 0.999951, pressure gradient = -0.245593
GAMG:  Solving for p, Initial residual = 0.0294781, Final residual = 0.00287847, No Iterations 6
time step continuity errors : sum local = 6.95673e-06, global = -6.54494e-18, cumulative = 3.08923e-17
Pressure gradient source: uncorrected Ubar = 0.99999, pressure gradient = -0.254098
smoothSolver:  Solving for omega, Initial residual = 6.89925e-06, Final residual = 6.89925e-06, No Iterations 0
smoothSolver:  Solving for k, Initial residual = 0.00422041, Final residual = 0.000342633, No Iterations 6
ExecutionTime = 0.216023 s  ClockTime = 1 s

Time = 79s

smoothSolver:  Solving for Ux, Initial residual = 0.00265035, Final residual = 0.000243852, No Iterations 6
smoothSolver:  Solving for Uy, Initial residual = 0.0131295, Final residual = 0.00109167, No Iterations 6
Pressure gradient source: uncorrected Ubar = 0.999955, pressure gradient = -0.244301
GAMG:  Solving for p, Initial residual = 0.0297347, Final residual = 0.00294213, No Iterations 7
time step continuity errors : sum local = 6.70693e-06, global = -6.69655e-18, cumulative = 2.41958e-17
Pressure gradient source: uncorrected Ubar = 0.999991, pressure gradient = -0.252068
smoothSolver:  Solving for omega, Initial residual = 6.85238e-06, Final residual = 6.85238e-06, No Iterations 0
smoothSolver:  Solving for k, Initial residual = 0.00406718, Final residual = 0.00033072, No Iterations 6
ExecutionTime = 0.218703 s  ClockTime = 1 s

Time = 80s

smoothSolver:  Solving for Ux, Initial residual = 0.00258906, Final residual = 0.00023885, No Iterations 6
smoothSolver:  Solving for Uy, Initial residual = 0.0126508, Final residual = 0.000970626, No Iterations 6
Pressure gradient source: uncorrected Ubar = 0.999959, pressure gradient = -0.24317
GAMG:  Solving for p, Initial residual = 0.028994, Final residual = 0.00275247, No Iterations 9
time step continuity errors : sum local = 5.93102e-06, global = 1.93834e-18, cumulative = 2.61341e-17
Pressure gradient source: uncorrected Ubar = 0.999991, pressure gradient = -0.250188
smoothSolver:  Solving for omega, Initial residual = 6.82768e-06, Final residual = 6.82768e-06, No Iterations 0
smoothSolver:  Solving for k, Initial residual = 0.0039142, Final residual = 0.000317632, No Iterations 6
ExecutionTime = 0.221489 s  ClockTime = 1 s

Time = 81s

smoothSolver:  Solving for Ux, Initial residual = 0.00252579, Final residual = 0.000233839, No Iterations 6
smoothSolver:  Solving for Uy, Initial residual = 0.0127362, Final residual = 0.000887744, No Iterations 6
Pressure gradient source: uncorrected Ubar = 0.999963, pressure gradient = -0.242179
GAMG:  Solving for p, Initial residual = 0.0260454, Final residual = 0.00241749, No Iterations 9
time step continuity errors : sum local = 5.2423e-06, global = 6.87427e-19, cumulative = 2.68215e-17
Pressure gradient source: uncorrected Ubar = 0.999992, pressure gradient = -0.248456
smoothSolver:  Solving for omega, Initial residual = 6.80875e-06, Final residual = 6.80875e-06, No Iterations 0
smoothSolver:  Solving for k, Initial residual = 0.00375982, Final residual = 0.000305024, No Iterations 6
ExecutionTime = 0.224271 s  ClockTime = 1 s

Time = 82s

smoothSolver:  Solving for Ux, Initial residual = 0.00246932, Final residual = 0.000229304, No Iterations 6
smoothSolver:  Solving for Uy, Initial residual = 0.0122694, Final residual = 0.00111726, No Iterations 5
Pressure gradient source: uncorrected Ubar = 0.999962, pressure gradient = -0.240381
GAMG:  Solving for p, Initial residual = 0.0243364, Final residual = 0.00213544, No Iterations 8
time step continuity errors : sum local = 4.5477e-06, global = -1.73753e-18, cumulative = 2.5084e-17
Pressure gradient source: uncorrected Ubar = 0.999992, pressure gradient = -0.246738
smoothSolver:  Solving for omega, Initial residual = 6.79101e-06, Final residual = 6.79101e-06, No Iterations 0
smoothSolver:  Solving for k, Initial residual = 0.00360929, Final residual = 0.000292349, No Iterations 6
ExecutionTime = 0.226976 s  ClockTime = 1 s

Time = 83s

smoothSolver:  Solving for Ux, Initial residual = 0.00242783, Final residual = 0.000225713, No Iterations 6
smoothSolver:  Solving for Uy, Initial residual = 0.0128886, Final residual = 0.00122872, No Iterations 5
Pressure gradient source: uncorrected Ubar = 0.999959, pressure gradient = -0.237952
GAMG:  Solving for p, Initial residual = 0.0264129, Final residual = 0.00232658, No Iterations 9
time step continuity errors : sum local = 5.41202e-06, global = -6.60081e-18, cumulative = 1.84832e-17
Pressure gradient source: uncorrected Ubar = 0.999992, pressure gradient = -0.24494
smoothSolver:  Solving for omega, Initial residual = 6.76795e-06, Final residual = 6.76795e-06, No Iterations 0
smoothSolver:  Solving for k, Initial residual = 0.0034778, Final residual = 0.000281247, No Iterations 6
ExecutionTime = 0.229711 s  ClockTime = 1 s

Time = 84s

smoothSolver:  Solving for Ux, Initial residual = 0.0024001, Final residual = 0.000223029, No Iterations 6
smoothSolver:  Solving for Uy, Initial residual = 0.0136075, Final residual = 0.00104081, No Iterations 6
Pressure gradient source: uncorrected Ubar = 0.999957, pressure gradient = -0.235724
GAMG:  Solving for p, Initial residual = 0.0287642, Final residual = 0.00251114, No Iterations 5
time step continuity errors : sum local = 6.03401e-06, global = 1.24232e-17, cumulative = 3.09064e-17
Pressure gradient source: uncorrected Ubar = 0.999991, pressure gradient = -0.243099
smoothSolver:  Solving for omega, Initial residual = 6.74587e-06, Final residual = 6.74587e-06, No Iterations 0
smoothSolver:  Solving for k, Initial residual = 0.0033582, Final residual = 0.000270317, No Iterations 6
ExecutionTime = 0.232299 s  ClockTime = 1 s

Time = 85s

smoothSolver:  Solving for Ux, Initial residual = 0.00237334, Final residual = 0.000220573, No Iterations 6
smoothSolver:  Solving for Uy, Initial residual = 0.0138661, Final residual = 0.00111411, No Iterations 6
Pressure gradient source: uncorrected Ubar = 0.999959, pressure gradient = -0.234343
GAMG:  Solving for p, Initial residual = 0.0268724, Final residual = 0.00244716, No Iterations 4
time step continuity errors : sum local = 5.46838e-06, global = 6.24941e-18, cumulative = 3.71558e-17
Pressure gradient source: uncorrected Ubar = 0.999992, pressure gradient = -0.241338
smoothSolver:  Solving for omega, Initial residual = 6.73507e-06, Final residual = 6.73507e-06, No Iterations 0
smoothSolver:  Solving for k, Initial residual = 0.00324288, Final residual = 0.000259874, No Iterations 6
ExecutionTime = 0.234815 s  ClockTime = 1 s

Time = 86s

smoothSolver:  Solving for Ux, Initial residual = 0.00234676, Final residual = 0.00021825, No Iterations 6
smoothSolver:  Solving for Uy, Initial residual = 0.0138518, Final residual = 0.00116425, No Iterations 6
Pressure gradient source: uncorrected Ubar = 0.99996, pressure gradient = -0.23283
GAMG:  Solving for p, Initial residual = 0.0227403, Final residual = 0.00203962, No Iterations 6
time step continuity errors : sum local = 4.21643e-06, global = 7.73972e-18, cumulative = 4.48956e-17
Pressure gradient source: uncorrected Ubar = 0.999992, pressure gradient = -0.239626
smoothSolver:  Solving for omega, Initial residual = 6.72439e-06, Final residual = 6.72439e-06, No Iterations 0
smoothSolver:  Solving for k, Initial residual = 0.00313393, Final residual = 0.000249524, No Iterations 6
ExecutionTime = 0.237475 s  ClockTime = 1 s

Time = 87s

smoothSolver:  Solving for Ux, Initial residual = 0.00232008, Final residual = 0.000216065, No Iterations 6
smoothSolver:  Solving for Uy, Initial residual = 0.0132091, Final residual = 0.00111618, No Iterations 6
Pressure gradient source: uncorrected Ubar = 0.999961, pressure gradient = -0.231489
GAMG:  Solving for p, Initial residual = 0.0201721, Final residual = 0.00182035, No Iterations 8
time step continuity errors : sum local = 3.97305e-06, global = -4.91274e-18, cumulative = 3.99828e-17
Pressure gradient source: uncorrected Ubar = 0.999992, pressure gradient = -0.23798
smoothSolver:  Solving for omega, Initial residual = 6.71049e-06, Final residual = 6.71049e-06, No Iterations 0
smoothSolver:  Solving for k, Initial residual = 0.00302487, Final residual = 0.000239644, No Iterations 6
ExecutionTime = 0.240191 s  ClockTime = 1 s

Time = 88s

smoothSolver:  Solving for Ux, Initial residual = 0.0022949, Final residual = 0.000214001, No Iterations 6
smoothSolver:  Solving for Uy, Initial residual = 0.0125282, Final residual = 0.00104318, No Iterations 6
Pressure gradient source: uncorrected Ubar = 0.999963, pressure gradient = -0.230216
GAMG:  Solving for p, Initial residual = 0.0193037, Final residual = 0.00188617, No Iterations 6
time step continuity errors : sum local = 4.18598e-06, global = 5.5072e-18, cumulative = 4.549e-17
Pressure gradient source: uncorrected Ubar = 0.999992, pressure gradient = -0.236399
smoothSolver:  Solving for omega, Initial residual = 6.69555e-06, Final residual = 6.69555e-06, No Iterations 0
smoothSolver:  Solving for k, Initial residual = 0.00291471, Final residual = 0.000229594, No Iterations 6
ExecutionTime = 0.242818 s  ClockTime = 1 s

Time = 89s

smoothSolver:  Solving for Ux, Initial residual = 0.00227141, Final residual = 0.000212039, No Iterations 6
smoothSolver:  Solving for Uy, Initial residual = 0.0119592, Final residual = 0.000976771, No Iterations 6
Pressure gradient source: uncorrected Ubar = 0.999965, pressure gradient = -0.228989
[...]
Pressure gradient source: uncorrected Ubar = 1, pressure gradient = 0.0297359
smoothSolver:  Solving for omega, Initial residual = 5.69194e-06, Final residual = 5.69194e-06, No Iterations 0
smoothSolver:  Solving for k, Initial residual = 1.5183e-05, Final residual = 6.62388e-06, No Iterations 2
ExecutionTime = 5.94605 s  ClockTime = 6 s

Time = 2221s

smoothSolver:  Solving for Ux, Initial residual = 1.61779e-05, Final residual = 6.92803e-06, No Iterations 2
smoothSolver:  Solving for Uy, Initial residual = 0.000170648, Final residual = 1.14919e-05, No Iterations 6
Pressure gradient source: uncorrected Ubar = 1, pressure gradient = 0.0297289
GAMG:  Solving for p, Initial residual = 8.42855e-05, Final residual = 8.31526e-06, No Iterations 6
time step continuity errors : sum local = 5.85461e-10, global = -5.213e-18, cumulative = 3.4219e-16
Pressure gradient source: uncorrected Ubar = 1, pressure gradient = 0.0297368
smoothSolver:  Solving for omega, Initial residual = 5.69194e-06, Final residual = 5.69194e-06, No Iterations 0
smoothSolver:  Solving for k, Initial residual = 1.51936e-05, Final residual = 6.63047e-06, No Iterations 2
ExecutionTime = 5.94874 s  ClockTime = 6 s

Time = 2222s

smoothSolver:  Solving for Ux, Initial residual = 1.60744e-05, Final residual = 6.88244e-06, No Iterations 2
smoothSolver:  Solving for Uy, Initial residual = 0.000171354, Final residual = 1.14909e-05, No Iterations 6
Pressure gradient source: uncorrected Ubar = 1, pressure gradient = 0.0297299
GAMG:  Solving for p, Initial residual = 8.42078e-05, Final residual = 6.99031e-06, No Iterations 7
time step continuity errors : sum local = 4.98851e-10, global = -4.26289e-18, cumulative = 3.37927e-16
Pressure gradient source: uncorrected Ubar = 1, pressure gradient = 0.0297378
smoothSolver:  Solving for omega, Initial residual = 5.69195e-06, Final residual = 5.69195e-06, No Iterations 0
smoothSolver:  Solving for k, Initial residual = 1.52061e-05, Final residual = 6.63754e-06, No Iterations 2
ExecutionTime = 5.95134 s  ClockTime = 6 s

Time = 2223s

smoothSolver:  Solving for Ux, Initial residual = 1.59714e-05, Final residual = 6.83743e-06, No Iterations 2
smoothSolver:  Solving for Uy, Initial residual = 0.000173098, Final residual = 1.15714e-05, No Iterations 6
Pressure gradient source: uncorrected Ubar = 1, pressure gradient = 0.0297309
GAMG:  Solving for p, Initial residual = 8.31168e-05, Final residual = 8.08309e-06, No Iterations 6
time step continuity errors : sum local = 5.76744e-10, global = 3.5944e-19, cumulative = 3.38286e-16
Pressure gradient source: uncorrected Ubar = 1, pressure gradient = 0.0297388
smoothSolver:  Solving for omega, Initial residual = 5.69195e-06, Final residual = 5.69195e-06, No Iterations 0
smoothSolver:  Solving for k, Initial residual = 1.52196e-05, Final residual = 6.64513e-06, No Iterations 2
ExecutionTime = 5.95387 s  ClockTime = 6 s

Time = 2224s

smoothSolver:  Solving for Ux, Initial residual = 1.58689e-05, Final residual = 6.79287e-06, No Iterations 2
smoothSolver:  Solving for Uy, Initial residual = 0.00017316, Final residual = 1.15485e-05, No Iterations 6
Pressure gradient source: uncorrected Ubar = 1, pressure gradient = 0.0297319
GAMG:  Solving for p, Initial residual = 8.28872e-05, Final residual = 8.03749e-06, No Iterations 6
time step continuity errors : sum local = 5.77549e-10, global = -3.45974e-18, cumulative = 3.34827e-16
Pressure gradient source: uncorrected Ubar = 1, pressure gradient = 0.0297398
smoothSolver:  Solving for omega, Initial residual = 5.69196e-06, Final residual = 5.69196e-06, No Iterations 0
smoothSolver:  Solving for k, Initial residual = 1.52354e-05, Final residual = 6.65356e-06, No Iterations 2
ExecutionTime = 5.95644 s  ClockTime = 6 s

Time = 2225s

smoothSolver:  Solving for Ux, Initial residual = 1.57668e-05, Final residual = 6.74852e-06, No Iterations 2
smoothSolver:  Solving for Uy, Initial residual = 0.000173301, Final residual = 1.15338e-05, No Iterations 6
Pressure gradient source: uncorrected Ubar = 1, pressure gradient = 0.0297329
GAMG:  Solving for p, Initial residual = 8.22279e-05, Final residual = 7.18208e-06, No Iterations 6
time step continuity errors : sum local = 5.24399e-10, global = 9.53242e-19, cumulative = 3.3578e-16
Pressure gradient source: uncorrected Ubar = 1, pressure gradient = 0.0297407
smoothSolver:  Solving for omega, Initial residual = 5.69196e-06, Final residual = 5.69196e-06, No Iterations 0
smoothSolver:  Solving for k, Initial residual = 1.52522e-05, Final residual = 6.66242e-06, No Iterations 2
ExecutionTime = 5.95898 s  ClockTime = 6 s

Time = 2226s

smoothSolver:  Solving for Ux, Initial residual = 1.56652e-05, Final residual = 6.70438e-06, No Iterations 2
smoothSolver:  Solving for Uy, Initial residual = 0.000173411, Final residual = 1.15154e-05, No Iterations 6
Pressure gradient source: uncorrected Ubar = 1, pressure gradient = 0.0297339
GAMG:  Solving for p, Initial residual = 8.10589e-05, Final residual = 7.97316e-06, No Iterations 5
time step continuity errors : sum local = 5.83946e-10, global = 4.34658e-19, cumulative = 3.36214e-16
Pressure gradient source: uncorrected Ubar = 1, pressure gradient = 0.0297417
smoothSolver:  Solving for omega, Initial residual = 5.69196e-06, Final residual = 5.69196e-06, No Iterations 0
smoothSolver:  Solving for k, Initial residual = 1.52702e-05, Final residual = 6.67174e-06, No Iterations 2
ExecutionTime = 5.96145 s  ClockTime = 6 s

Time = 2227s

smoothSolver:  Solving for Ux, Initial residual = 1.55641e-05, Final residual = 6.66044e-06, No Iterations 2
smoothSolver:  Solving for Uy, Initial residual = 0.000171729, Final residual = 1.1397e-05, No Iterations 6
Pressure gradient source: uncorrected Ubar = 1, pressure gradient = 0.0297349
GAMG:  Solving for p, Initial residual = 8.12032e-05, Final residual = 7.37606e-06, No Iterations 6
time step continuity errors : sum local = 5.43261e-10, global = -1.18299e-18, cumulative = 3.35031e-16
Pressure gradient source: uncorrected Ubar = 1, pressure gradient = 0.0297427
smoothSolver:  Solving for omega, Initial residual = 5.69197e-06, Final residual = 5.69197e-06, No Iterations 0
smoothSolver:  Solving for k, Initial residual = 1.52907e-05, Final residual = 6.68399e-06, No Iterations 2
ExecutionTime = 5.96403 s  ClockTime = 6 s

Time = 2228s

smoothSolver:  Solving for Ux, Initial residual = 1.54635e-05, Final residual = 6.61672e-06, No Iterations 2
smoothSolver:  Solving for Uy, Initial residual = 0.000172046, Final residual = 1.14415e-05, No Iterations 6
Pressure gradient source: uncorrected Ubar = 1, pressure gradient = 0.0297359
GAMG:  Solving for p, Initial residual = 8.00348e-05, Final residual = 7.74722e-06, No Iterations 5
time step continuity errors : sum local = 5.70218e-10, global = 6.85983e-18, cumulative = 3.41891e-16
Pressure gradient source: uncorrected Ubar = 1, pressure gradient = 0.0297436
smoothSolver:  Solving for omega, Initial residual = 5.69197e-06, Final residual = 5.69197e-06, No Iterations 0
smoothSolver:  Solving for k, Initial residual = 1.53115e-05, Final residual = 6.69429e-06, No Iterations 2
ExecutionTime = 5.96653 s  ClockTime = 6 s

Time = 2229s

smoothSolver:  Solving for Ux, Initial residual = 1.53633e-05, Final residual = 9.93702e-06, No Iterations 1
smoothSolver:  Solving for Uy, Initial residual = 0.000169791, Final residual = 1.13607e-05, No Iterations 6
Pressure gradient source: uncorrected Ubar = 1, pressure gradient = 0.0297265
GAMG:  Solving for p, Initial residual = 0.000225064, Final residual = 2.23174e-05, No Iterations 12
time step continuity errors : sum local = 1.55389e-09, global = 4.14416e-18, cumulative = 3.46035e-16
Pressure gradient source: uncorrected Ubar = 1, pressure gradient = 0.0297394
smoothSolver:  Solving for omega, Initial residual = 5.69197e-06, Final residual = 5.69197e-06, No Iterations 0
smoothSolver:  Solving for k, Initial residual = 1.53147e-05, Final residual = 6.69689e-06, No Iterations 2
ExecutionTime = 5.96933 s  ClockTime = 6 s

Time = 2230s

smoothSolver:  Solving for Ux, Initial residual = 1.53398e-05, Final residual = 9.93558e-06, No Iterations 1
smoothSolver:  Solving for Uy, Initial residual = 0.000222617, Final residual = 1.4567e-05, No Iterations 6
Pressure gradient source: uncorrected Ubar = 1, pressure gradient = 0.0297347
GAMG:  Solving for p, Initial residual = 0.000242621, Final residual = 2.38613e-05, No Iterations 12
time step continuity errors : sum local = 1.72903e-09, global = -9.36857e-19, cumulative = 3.45099e-16
Pressure gradient source: uncorrected Ubar = 1, pressure gradient = 0.029739
smoothSolver:  Solving for omega, Initial residual = 5.69198e-06, Final residual = 5.69198e-06, No Iterations 0
smoothSolver:  Solving for k, Initial residual = 1.53269e-05, Final residual = 6.70332e-06, No Iterations 2
ExecutionTime = 5.97214 s  ClockTime = 6 s

Time = 2231s

smoothSolver:  Solving for Ux, Initial residual = 1.52774e-05, Final residual = 9.90322e-06, No Iterations 1
smoothSolver:  Solving for Uy, Initial residual = 0.00027001, Final residual = 2.43539e-05, No Iterations 5
Pressure gradient source: uncorrected Ubar = 1, pressure gradient = 0.0297359
GAMG:  Solving for p, Initial residual = 0.000234849, Final residual = 2.28092e-05, No Iterations 14
time step continuity errors : sum local = 1.66601e-09, global = 5.6095e-19, cumulative = 3.4566e-16
Pressure gradient source: uncorrected Ubar = 1, pressure gradient = 0.0297391
smoothSolver:  Solving for omega, Initial residual = 5.69198e-06, Final residual = 5.69198e-06, No Iterations 0
smoothSolver:  Solving for k, Initial residual = 1.53401e-05, Final residual = 6.71006e-06, No Iterations 2
ExecutionTime = 5.97506 s  ClockTime = 6 s

Time = 2232s

smoothSolver:  Solving for Ux, Initial residual = 1.52111e-05, Final residual = 9.86575e-06, No Iterations 1
smoothSolver:  Solving for Uy, Initial residual = 0.000274087, Final residual = 2.39158e-05, No Iterations 5
Pressure gradient source: uncorrected Ubar = 1, pressure gradient = 0.0297369
GAMG:  Solving for p, Initial residual = 0.000206926, Final residual = 1.87727e-05, No Iterations 15
time step continuity errors : sum local = 1.39199e-09, global = -6.60971e-18, cumulative = 3.3905e-16
Pressure gradient source: uncorrected Ubar = 1, pressure gradient = 0.0297393
smoothSolver:  Solving for omega, Initial residual = 5.69198e-06, Final residual = 5.69198e-06, No Iterations 0
smoothSolver:  Solving for k, Initial residual = 1.5354e-05, Final residual = 6.717e-06, No Iterations 2
ExecutionTime = 5.978 s  ClockTime = 6 s

Time = 2233s

smoothSolver:  Solving for Ux, Initial residual = 1.51444e-05, Final residual = 9.8256e-06, No Iterations 1
smoothSolver:  Solving for Uy, Initial residual = 0.000260664, Final residual = 2.2469e-05, No Iterations 5
Pressure gradient source: uncorrected Ubar = 1, pressure gradient = 0.0297377
GAMG:  Solving for p, Initial residual = 0.000166916, Final residual = 1.65223e-05, No Iterations 12
time step continuity errors : sum local = 1.21974e-09, global = -6.65194e-20, cumulative = 3.38983e-16
Pressure gradient source: uncorrected Ubar = 1, pressure gradient = 0.0297398
smoothSolver:  Solving for omega, Initial residual = 5.69199e-06, Final residual = 5.69199e-06, No Iterations 0
smoothSolver:  Solving for k, Initial residual = 1.53686e-05, Final residual = 6.72406e-06, No Iterations 2
ExecutionTime = 5.98084 s  ClockTime = 6 s

Time = 2234s

smoothSolver:  Solving for Ux, Initial residual = 1.50773e-05, Final residual = 9.78425e-06, No Iterations 1
smoothSolver:  Solving for Uy, Initial residual = 0.000242483, Final residual = 2.10147e-05, No Iterations 5
Pressure gradient source: uncorrected Ubar = 1, pressure gradient = 0.0297384
GAMG:  Solving for p, Initial residual = 0.000141523, Final residual = 1.3231e-05, No Iterations 12
time step continuity errors : sum local = 9.79461e-10, global = 1.8464e-18, cumulative = 3.4083e-16
Pressure gradient source: uncorrected Ubar = 1, pressure gradient = 0.0297403
smoothSolver:  Solving for omega, Initial residual = 5.69199e-06, Final residual = 5.69199e-06, No Iterations 0
smoothSolver:  Solving for k, Initial residual = 1.53835e-05, Final residual = 6.73118e-06, No Iterations 2
ExecutionTime = 5.98365 s  ClockTime = 6 s

Time = 2235s

smoothSolver:  Solving for Ux, Initial residual = 1.50093e-05, Final residual = 9.74272e-06, No Iterations 1
smoothSolver:  Solving for Uy, Initial residual = 0.00022152, Final residual = 1.93651e-05, No Iterations 5
Pressure gradient source: uncorrected Ubar = 1, pressure gradient = 0.0297392
GAMG:  Solving for p, Initial residual = 0.000125872, Final residual = 1.24855e-05, No Iterations 8
time step continuity errors : sum local = 9.1245e-10, global = -5.87731e-18, cumulative = 3.34952e-16
Pressure gradient source: uncorrected Ubar = 1, pressure gradient = 0.0297408
smoothSolver:  Solving for omega, Initial residual = 5.692e-06, Final residual = 5.692e-06, No Iterations 0
smoothSolver:  Solving for k, Initial residual = 1.53986e-05, Final residual = 6.73826e-06, No Iterations 2
ExecutionTime = 5.98628 s  ClockTime = 6 s

Time = 2236s

smoothSolver:  Solving for Ux, Initial residual = 1.49409e-05, Final residual = 9.70039e-06, No Iterations 1
smoothSolver:  Solving for Uy, Initial residual = 0.000201383, Final residual = 1.77907e-05, No Iterations 5
Pressure gradient source: uncorrected Ubar = 1, pressure gradient = 0.02974
GAMG:  Solving for p, Initial residual = 0.000115859, Final residual = 1.09401e-05, No Iterations 5
time step continuity errors : sum local = 7.94236e-10, global = 4.74149e-19, cumulative = 3.35427e-16
Pressure gradient source: uncorrected Ubar = 1, pressure gradient = 0.0297414
smoothSolver:  Solving for omega, Initial residual = 5.692e-06, Final residual = 5.692e-06, No Iterations 0
smoothSolver:  Solving for k, Initial residual = 1.54138e-05, Final residual = 6.74523e-06, No Iterations 2
ExecutionTime = 5.98873 s  ClockTime = 6 s

Time = 2237s

smoothSolver:  Solving for Ux, Initial residual = 1.48723e-05, Final residual = 9.6575e-06, No Iterations 1
smoothSolver:  Solving for Uy, Initial residual = 0.000179667, Final residual = 1.60494e-05, No Iterations 5
Pressure gradient source: uncorrected Ubar = 1, pressure gradient = 0.0297407
GAMG:  Solving for p, Initial residual = 0.000105177, Final residual = 8.37548e-06, No Iterations 4
time step continuity errors : sum local = 6.04148e-10, global = 1.89468e-18, cumulative = 3.37321e-16
Pressure gradient source: uncorrected Ubar = 1, pressure gradient = 0.029742
smoothSolver:  Solving for omega, Initial residual = 5.692e-06, Final residual = 5.692e-06, No Iterations 0
smoothSolver:  Solving for k, Initial residual = 1.54287e-05, Final residual = 6.75203e-06, No Iterations 2
ExecutionTime = 5.9912 s  ClockTime = 6 s

Time = 2238s

smoothSolver:  Solving for Ux, Initial residual = 1.48034e-05, Final residual = 9.6142e-06, No Iterations 1
smoothSolver:  Solving for Uy, Initial residual = 0.00015933, Final residual = 1.43898e-05, No Iterations 5
Pressure gradient source: uncorrected Ubar = 1, pressure gradient = 0.0297415
GAMG:  Solving for p, Initial residual = 9.78005e-05, Final residual = 4.82856e-06, No Iterations 4
time step continuity errors : sum local = 3.46171e-10, global = -1.91674e-19, cumulative = 3.3713e-16
Pressure gradient source: uncorrected Ubar = 1, pressure gradient = 0.0297427
smoothSolver:  Solving for omega, Initial residual = 5.69201e-06, Final residual = 5.69201e-06, No Iterations 0
smoothSolver:  Solving for k, Initial residual = 1.54433e-05, Final residual = 6.75862e-06, No Iterations 2
ExecutionTime = 5.9936 s  ClockTime = 6 s

Time = 2239s

smoothSolver:  Solving for Ux, Initial residual = 1.47344e-05, Final residual = 9.57059e-06, No Iterations 1
smoothSolver:  Solving for Uy, Initial residual = 0.000143154, Final residual = 1.28879e-05, No Iterations 5
Pressure gradient source: uncorrected Ubar = 1, pressure gradient = 0.0297422
GAMG:  Solving for p, Initial residual = 9.4304e-05, Final residual = 7.2287e-06, No Iterations 4
time step continuity errors : sum local = 5.09769e-10, global = -8.01239e-18, cumulative = 3.29117e-16
Pressure gradient source: uncorrected Ubar = 1, pressure gradient = 0.0297433
smoothSolver:  Solving for omega, Initial residual = 5.69201e-06, Final residual = 5.69201e-06, No Iterations 0
smoothSolver:  Solving for k, Initial residual = 1.54575e-05, Final residual = 6.76502e-06, No Iterations 2
ExecutionTime = 5.99607 s  ClockTime = 6 s

Time = 2240s

smoothSolver:  Solving for Ux, Initial residual = 1.46654e-05, Final residual = 9.52675e-06, No Iterations 1
smoothSolver:  Solving for Uy, Initial residual = 0.000130928, Final residual = 1.17008e-05, No Iterations 5
Pressure gradient source: uncorrected Ubar = 1, pressure gradient = 0.029743
GAMG:  Solving for p, Initial residual = 9.55825e-05, Final residual = 8.79342e-06, No Iterations 6
time step continuity errors : sum local = 6.38396e-10, global = 3.48698e-18, cumulative = 3.32604e-16
Pressure gradient source: uncorrected Ubar = 1, pressure gradient = 0.029744
smoothSolver:  Solving for omega, Initial residual = 5.69201e-06, Final residual = 5.69201e-06, No Iterations 0
smoothSolver:  Solving for k, Initial residual = 1.54712e-05, Final residual = 6.77123e-06, No Iterations 2
ExecutionTime = 5.99858 s  ClockTime = 6 s

Time = 2241s

smoothSolver:  Solving for Ux, Initial residual = 1.45964e-05, Final residual = 9.48274e-06, No Iterations 1
smoothSolver:  Solving for Uy, Initial residual = 0.000119563, Final residual = 1.05585e-05, No Iterations 5
Pressure gradient source: uncorrected Ubar = 1, pressure gradient = 0.0297437
GAMG:  Solving for p, Initial residual = 9.59502e-05, Final residual = 9.04177e-06, No Iterations 7
time step continuity errors : sum local = 6.6398e-10, global = -4.04303e-18, cumulative = 3.28561e-16
Pressure gradient source: uncorrected Ubar = 1, pressure gradient = 0.0297447
smoothSolver:  Solving for omega, Initial residual = 5.69202e-06, Final residual = 5.69202e-06, No Iterations 0
smoothSolver:  Solving for k, Initial residual = 1.54846e-05, Final residual = 6.77724e-06, No Iterations 2
ExecutionTime = 6.00115 s  ClockTime = 6 s

Time = 2242s

smoothSolver:  Solving for Ux, Initial residual = 1.45274e-05, Final residual = 9.43861e-06, No Iterations 1
smoothSolver:  Solving for Uy, Initial residual = 0.000107741, Final residual = 9.32434e-06, No Iterations 5
Pressure gradient source: uncorrected Ubar = 1, pressure gradient = 0.0297445
GAMG:  Solving for p, Initial residual = 9.1897e-05, Final residual = 7.87447e-06, No Iterations 9
time step continuity errors : sum local = 5.80562e-10, global = 6.30064e-18, cumulative = 3.34862e-16
Pressure gradient source: uncorrected Ubar = 1, pressure gradient = 0.0297454
smoothSolver:  Solving for omega, Initial residual = 5.69202e-06, Final residual = 5.69202e-06, No Iterations 0
smoothSolver:  Solving for k, Initial residual = 1.54975e-05, Final residual = 6.78307e-06, No Iterations 2
ExecutionTime = 6.00385 s  ClockTime = 6 s

Time = 2243s

smoothSolver:  Solving for Ux, Initial residual = 1.44589e-05, Final residual = 9.39439e-06, No Iterations 1
smoothSolver:  Solving for Uy, Initial residual = 9.71624e-05, Final residual = 8.17379e-06, No Iterations 5
Pressure gradient source: uncorrected Ubar = 1, pressure gradient = 0.0297453
GAMG:  Solving for p, Initial residual = 8.73466e-05, Final residual = 8.2265e-06, No Iterations 9
time step continuity errors : sum local = 6.02219e-10, global = 1.67958e-18, cumulative = 3.36541e-16
Pressure gradient source: uncorrected Ubar = 1, pressure gradient = 0.0297461
smoothSolver:  Solving for omega, Initial residual = 5.69202e-06, Final residual = 5.69202e-06, No Iterations 0
smoothSolver:  Solving for k, Initial residual = 1.55099e-05, Final residual = 6.78872e-06, No Iterations 2
ExecutionTime = 6.00651 s  ClockTime = 6 s


SIMPLE solution converged in 2243 iterations

End

