/*---------------------------------------------------------------------------*\
  =========                 |
  \\      /  F ield         | OpenFOAM: The Open Source CFD Toolbox
   \\    /   O peration     | Website:  https://openfoam.org
    \\  /    A nd           | Version:  10
     \\/     M anipulation  |
\*---------------------------------------------------------------------------*/
Build  : 10-e450dce21ea5
Exec   : blockMesh
Date   : Jan 16 2023
Time   : 11:43:43
Host   : "w530-R9YK46P"
PID    : 14393
I/O    : uncollated
Case   : /home/jdmezazeron/gitDanielMezaZ/turbulenceVisualized/Data/SimulationFiles/E21_Re7127
nProcs : 1
sigFpe : Enabling floating point exception trapping (FOAM_SIGFPE).
fileModificationChecking : Monitoring run-time modified files using timeStampMaster (fileModificationSkew 10)
allowSystemOperations : Allowing user-supplied system call operations

// * * * * * * * * * * * * * * * * * * * * * * * * * * * * * * * * * * * * * //
Create time

Reading "blockMeshDict"

Creating block mesh from
    "system/blockMeshDict"
Creating block edges
No non-planar block faces defined
Creating topology blocks
Creating topology patches

Creating block mesh topology

Check topology

	Basic statistics
		Number of internal faces : 0
		Number of boundary faces : 6
		Number of defined boundary faces : 6
		Number of undefined boundary faces : 0
	Checking patch -> block consistency

Creating block offsets
Creating merge list .

Creating polyMesh from blockMesh
Creating patches
Creating cells
Creating points with scale 1
    Block 0 cell size :
        i : 0.5
        j : 0.00921276 .. 0.036851
        k : 2

Detected cyclic patches; ordering boundary faces

Writing polyMesh
----------------
Mesh Information
----------------
  boundingBox: (-1 0 -1) (1 1 1)
  nPoints: 510
  nCells: 200
  nFaces: 854
  nInternalFaces: 346
----------------
Patches
----------------
  patch 0 (start: 346 size: 50) name: inlet
  patch 1 (start: 396 size: 50) name: outlet
  patch 2 (start: 446 size: 4) name: fixedWalls-bottom
  patch 3 (start: 450 size: 4) name: fixedWalls-top
  patch 4 (start: 454 size: 400) name: frontAndBack

End

/*---------------------------------------------------------------------------*\
  =========                 |
  \\      /  F ield         | OpenFOAM: The Open Source CFD Toolbox
   \\    /   O peration     | Website:  https://openfoam.org
    \\  /    A nd           | Version:  10
     \\/     M anipulation  |
\*---------------------------------------------------------------------------*/
Build  : 10-e450dce21ea5
Exec   : simpleFoam
Date   : Jan 16 2023
Time   : 11:43:43
Host   : "w530-R9YK46P"
PID    : 14394
I/O    : uncollated
Case   : /home/jdmezazeron/gitDanielMezaZ/turbulenceVisualized/Data/SimulationFiles/E21_Re7127
nProcs : 1
sigFpe : Enabling floating point exception trapping (FOAM_SIGFPE).
fileModificationChecking : Monitoring run-time modified files using timeStampMaster (fileModificationSkew 10)
allowSystemOperations : Allowing user-supplied system call operations

// * * * * * * * * * * * * * * * * * * * * * * * * * * * * * * * * * * * * * //
Create time

Create mesh for time = 0


SIMPLE: Convergence criteria found
        U: tolerance 0.01
        p: tolerance 0.01
        omega: tolerance 0.0001

Reading field p

Reading field U

Reading/calculating face flux field phi

Selecting viscosity model Newtonian
Selecting turbulence model type RAS
Selecting RAS turbulence model kOmegaSST
Selecting patchDistMethod meshWave
RAS
{
    RASModel        kOmegaSST;
    turbulence      on;
    printCoeffs     on;
    alphaK1         0.85;
    alphaK2         1;
    alphaOmega1     0.5;
    alphaOmega2     0.856;
    gamma1          0.555556;
    gamma2          0.44;
    beta1           0.075;
    beta2           0.0828;
    betaStar        0.09;
    a1              0.31;
    b1              1;
    c1              10;
    F3              false;
}

No MRF models present

--> FOAM Warning : Creating fvModels from "system/fvOptions" rather than constant/fvModels
No fvModels present
--> FOAM Warning : Creating fvConstraints from "system/fvOptions"

Selecting finite volume constraint type meanVelocityForce
    Name: momentumSource
    - selecting all cells
    - selected 200 cell(s) with volume 4
    Initial pressure gradient = 0


Starting time loop

turbulenceFields stressComponents: storing fields:
    R

Time = 1s

smoothSolver:  Solving for Ux, Initial residual = 0, Final residual = 0, No Iterations 0
smoothSolver:  Solving for Uy, Initial residual = 0, Final residual = 0, No Iterations 0
Pressure gradient source: uncorrected Ubar = 0, pressure gradient = 1.78894
GAMG:  Solving for p, Initial residual = 0.999989, Final residual = 0.0670897, No Iterations 3
time step continuity errors : sum local = 5.01867e-17, global = 4.06052e-18, cumulative = 4.06052e-18
Pressure gradient source: uncorrected Ubar = 0.869383, pressure gradient = 0.233666
smoothSolver:  Solving for omega, Initial residual = 0.217233, Final residual = 0.0163051, No Iterations 1
bounding omega, min: -11.2686 max: 1057.93 average: 43.2354
smoothSolver:  Solving for k, Initial residual = 1, Final residual = 0.0357429, No Iterations 2
ExecutionTime = 0.013543 s  ClockTime = 0 s

Time = 2s

smoothSolver:  Solving for Ux, Initial residual = 0.158111, Final residual = 0.0143749, No Iterations 5
smoothSolver:  Solving for Uy, Initial residual = 1, Final residual = 0.0831371, No Iterations 2
Pressure gradient source: uncorrected Ubar = 1.19518, pressure gradient = -1.13226
GAMG:  Solving for p, Initial residual = 1, Final residual = 0.098568, No Iterations 8
time step continuity errors : sum local = 0.005927, global = -1.99222e-17, cumulative = -1.58617e-17
Pressure gradient source: uncorrected Ubar = 1.04383, pressure gradient = -0.0730745
smoothSolver:  Solving for omega, Initial residual = 0.0440956, Final residual = 0.00321717, No Iterations 1
smoothSolver:  Solving for k, Initial residual = 0.264344, Final residual = 0.019846, No Iterations 3
ExecutionTime = 0.015936 s  ClockTime = 0 s

Time = 3s

smoothSolver:  Solving for Ux, Initial residual = 0.179391, Final residual = 0.0123693, No Iterations 5
smoothSolver:  Solving for Uy, Initial residual = 0.562514, Final residual = 0.0308551, No Iterations 3
Pressure gradient source: uncorrected Ubar = 0.926033, pressure gradient = 0.623745
GAMG:  Solving for p, Initial residual = 0.139019, Final residual = 0.0109383, No Iterations 7
time step continuity errors : sum local = 0.00238387, global = -3.1984e-18, cumulative = -1.90601e-17
Pressure gradient source: uncorrected Ubar = 0.989917, pressure gradient = 0.0219144
smoothSolver:  Solving for omega, Initial residual = 0.0108059, Final residual = 0.000432457, No Iterations 2
smoothSolver:  Solving for k, Initial residual = 0.157913, Final residual = 0.00790382, No Iterations 2
ExecutionTime = 0.018276 s  ClockTime = 0 s

Time = 4s

smoothSolver:  Solving for Ux, Initial residual = 0.0794522, Final residual = 0.00606719, No Iterations 4
smoothSolver:  Solving for Uy, Initial residual = 0.442542, Final residual = 0.0225391, No Iterations 3
Pressure gradient source: uncorrected Ubar = 1.0055, pressure gradient = -0.0336956
GAMG:  Solving for p, Initial residual = 0.0583545, Final residual = 0.0051705, No Iterations 12
time step continuity errors : sum local = 0.0015752, global = -1.0554e-18, cumulative = -2.01155e-17
Pressure gradient source: uncorrected Ubar = 1.00073, pressure gradient = 0.0145791
smoothSolver:  Solving for omega, Initial residual = 0.00702702, Final residual = 0.000636904, No Iterations 1
smoothSolver:  Solving for k, Initial residual = 0.0860612, Final residual = 0.00814026, No Iterations 2
ExecutionTime = 0.022145 s  ClockTime = 0 s

Time = 5s

smoothSolver:  Solving for Ux, Initial residual = 0.0441293, Final residual = 0.00304672, No Iterations 5
smoothSolver:  Solving for Uy, Initial residual = 0.496121, Final residual = 0.0231669, No Iterations 3
Pressure gradient source: uncorrected Ubar = 1.00253, pressure gradient = -0.0125452
GAMG:  Solving for p, Initial residual = 0.0977237, Final residual = 0.0075349, No Iterations 7
time step continuity errors : sum local = 0.00103067, global = -2.36502e-18, cumulative = -2.24805e-17
Pressure gradient source: uncorrected Ubar = 1.00034, pressure gradient = 0.0109667
smoothSolver:  Solving for omega, Initial residual = 0.00321804, Final residual = 0.000153144, No Iterations 2
smoothSolver:  Solving for k, Initial residual = 0.065982, Final residual = 0.00601359, No Iterations 3
ExecutionTime = 0.025812 s  ClockTime = 0 s

Time = 6s

smoothSolver:  Solving for Ux, Initial residual = 0.0307326, Final residual = 0.00244074, No Iterations 5
smoothSolver:  Solving for Uy, Initial residual = 0.476073, Final residual = 0.0292987, No Iterations 3
Pressure gradient source: uncorrected Ubar = 1.00143, pressure gradient = -0.0053098
GAMG:  Solving for p, Initial residual = 0.160443, Final residual = 0.0132329, No Iterations 12
time step continuity errors : sum local = 0.000755485, global = 8.34878e-18, cumulative = -1.41317e-17
Pressure gradient source: uncorrected Ubar = 1.00019, pressure gradient = 0.00882594
smoothSolver:  Solving for omega, Initial residual = 0.00208488, Final residual = 0.000133987, No Iterations 2
smoothSolver:  Solving for k, Initial residual = 0.0545756, Final residual = 0.00285658, No Iterations 4
ExecutionTime = 0.029598 s  ClockTime = 1 s

Time = 7s

smoothSolver:  Solving for Ux, Initial residual = 0.0236128, Final residual = 0.00205603, No Iterations 5
smoothSolver:  Solving for Uy, Initial residual = 0.570255, Final residual = 0.032345, No Iterations 3
Pressure gradient source: uncorrected Ubar = 1.00096, pressure gradient = -0.00281359
GAMG:  Solving for p, Initial residual = 0.0945383, Final residual = 0.00852867, No Iterations 13
time step continuity errors : sum local = 0.000513586, global = -4.13183e-18, cumulative = -1.82635e-17
Pressure gradient source: uncorrected Ubar = 1.00013, pressure gradient = 0.00731301
smoothSolver:  Solving for omega, Initial residual = 0.001248, Final residual = 0.000100752, No Iterations 2
smoothSolver:  Solving for k, Initial residual = 0.0589665, Final residual = 0.00570841, No Iterations 4
ExecutionTime = 0.032041 s  ClockTime = 1 s

Time = 8s

smoothSolver:  Solving for Ux, Initial residual = 0.0193357, Final residual = 0.00180404, No Iterations 5
smoothSolver:  Solving for Uy, Initial residual = 0.570363, Final residual = 0.0318758, No Iterations 3
Pressure gradient source: uncorrected Ubar = 1.00108, pressure gradient = -0.00605337
GAMG:  Solving for p, Initial residual = 0.0575241, Final residual = 0.00352514, No Iterations 4
time step continuity errors : sum local = 0.000280183, global = -4.43792e-19, cumulative = -1.87073e-17
Pressure gradient source: uncorrected Ubar = 1.00014, pressure gradient = 0.00559705
smoothSolver:  Solving for omega, Initial residual = 0.000833549, Final residual = 6.19781e-05, No Iterations 3
smoothSolver:  Solving for k, Initial residual = 0.0461429, Final residual = 0.00396023, No Iterations 4
ExecutionTime = 0.034048 s  ClockTime = 1 s

Time = 9s

smoothSolver:  Solving for Ux, Initial residual = 0.0161399, Final residual = 0.00157044, No Iterations 5
smoothSolver:  Solving for Uy, Initial residual = 0.549013, Final residual = 0.0332126, No Iterations 3
Pressure gradient source: uncorrected Ubar = 1.00057, pressure gradient = -0.00173056
GAMG:  Solving for p, Initial residual = 0.0424027, Final residual = 0.00268207, No Iterations 9
time step continuity errors : sum local = 0.000221359, global = 1.59224e-18, cumulative = -1.71151e-17
Pressure gradient source: uncorrected Ubar = 1.00007, pressure gradient = 0.00469582
smoothSolver:  Solving for omega, Initial residual = 0.000536591, Final residual = 3.77579e-05, No Iterations 3
smoothSolver:  Solving for k, Initial residual = 0.0419702, Final residual = 0.00381155, No Iterations 4
ExecutionTime = 0.036472 s  ClockTime = 1 s

Time = 10s

smoothSolver:  Solving for Ux, Initial residual = 0.0137412, Final residual = 0.000941653, No Iterations 6
smoothSolver:  Solving for Uy, Initial residual = 0.532879, Final residual = 0.0307624, No Iterations 3
Pressure gradient source: uncorrected Ubar = 1.00053, pressure gradient = -0.00241236
GAMG:  Solving for p, Initial residual = 0.0413359, Final residual = 0.00346993, No Iterations 11
time step continuity errors : sum local = 0.000260596, global = 1.00908e-17, cumulative = -7.02428e-18
Pressure gradient source: uncorrected Ubar = 1.00006, pressure gradient = 0.00384888
smoothSolver:  Solving for omega, Initial residual = 0.000384166, Final residual = 3.26222e-05, No Iterations 3
smoothSolver:  Solving for k, Initial residual = 0.0371164, Final residual = 0.00222405, No Iterations 5
ExecutionTime = 0.038949 s  ClockTime = 1 s

Time = 11s

smoothSolver:  Solving for Ux, Initial residual = 0.0119937, Final residual = 0.000867276, No Iterations 6
smoothSolver:  Solving for Uy, Initial residual = 0.463369, Final residual = 0.0260759, No Iterations 3
Pressure gradient source: uncorrected Ubar = 1.00039, pressure gradient = -0.00154531
GAMG:  Solving for p, Initial residual = 0.0460455, Final residual = 0.00373191, No Iterations 11
time step continuity errors : sum local = 0.00018761, global = 8.32887e-18, cumulative = 1.3046e-18
Pressure gradient source: uncorrected Ubar = 1.00005, pressure gradient = 0.00319733
smoothSolver:  Solving for omega, Initial residual = 0.00027525, Final residual = 1.95965e-05, No Iterations 4
smoothSolver:  Solving for k, Initial residual = 0.0330501, Final residual = 0.00243165, No Iterations 5
ExecutionTime = 0.042377 s  ClockTime = 1 s

Time = 12s

smoothSolver:  Solving for Ux, Initial residual = 0.0105909, Final residual = 0.000816906, No Iterations 6
smoothSolver:  Solving for Uy, Initial residual = 0.382703, Final residual = 0.0250246, No Iterations 3
Pressure gradient source: uncorrected Ubar = 1.0003, pressure gradient = -0.00100848
GAMG:  Solving for p, Initial residual = 0.0590966, Final residual = 0.00570379, No Iterations 9
time step continuity errors : sum local = 0.000198849, global = 6.49844e-18, cumulative = 7.80303e-18
Pressure gradient source: uncorrected Ubar = 1.00004, pressure gradient = 0.00267839
smoothSolver:  Solving for omega, Initial residual = 0.000200543, Final residual = 2.00484e-05, No Iterations 4
smoothSolver:  Solving for k, Initial residual = 0.0282247, Final residual = 0.00173272, No Iterations 5
ExecutionTime = 0.044921 s  ClockTime = 1 s

Time = 13s

smoothSolver:  Solving for Ux, Initial residual = 0.00954038, Final residual = 0.000765531, No Iterations 6
smoothSolver:  Solving for Uy, Initial residual = 0.362791, Final residual = 0.0235206, No Iterations 3
Pressure gradient source: uncorrected Ubar = 1.00018, pressure gradient = -1.32941e-05
GAMG:  Solving for p, Initial residual = 0.0743373, Final residual = 0.00706328, No Iterations 9
time step continuity errors : sum local = 0.000148247, global = 8.46567e-18, cumulative = 1.62687e-17
Pressure gradient source: uncorrected Ubar = 1.00002, pressure gradient = 0.00234759
smoothSolver:  Solving for omega, Initial residual = 0.000164798, Final residual = 1.06502e-05, No Iterations 5
smoothSolver:  Solving for k, Initial residual = 0.0251965, Final residual = 0.00145171, No Iterations 5
ExecutionTime = 0.047217 s  ClockTime = 1 s

Time = 14s

smoothSolver:  Solving for Ux, Initial residual = 0.00860701, Final residual = 0.000712836, No Iterations 6
smoothSolver:  Solving for Uy, Initial residual = 0.415449, Final residual = 0.0285443, No Iterations 3
Pressure gradient source: uncorrected Ubar = 1.00013, pressure gradient = 0.000342767
GAMG:  Solving for p, Initial residual = 0.0886159, Final residual = 0.00754926, No Iterations 9
time step continuity errors : sum local = 9.26249e-05, global = -3.67792e-18, cumulative = 1.25908e-17
Pressure gradient source: uncorrected Ubar = 1.00002, pressure gradient = 0.00210206
smoothSolver:  Solving for omega, Initial residual = 0.000126137, Final residual = 8.64935e-06, No Iterations 5
smoothSolver:  Solving for k, Initial residual = 0.0226402, Final residual = 0.00170641, No Iterations 5
ExecutionTime = 0.049511 s  ClockTime = 1 s

Time = 15s

smoothSolver:  Solving for Ux, Initial residual = 0.00794277, Final residual = 0.000680501, No Iterations 6
smoothSolver:  Solving for Uy, Initial residual = 0.511955, Final residual = 0.0424299, No Iterations 3
Pressure gradient source: uncorrected Ubar = 1.00011, pressure gradient = 0.000340836
GAMG:  Solving for p, Initial residual = 0.0517468, Final residual = 0.0050977, No Iterations 7
time step continuity errors : sum local = 7.57782e-05, global = 5.08392e-18, cumulative = 1.76747e-17
Pressure gradient source: uncorrected Ubar = 1.00001, pressure gradient = 0.00188227
smoothSolver:  Solving for omega, Initial residual = 0.000105087, Final residual = 7.67543e-06, No Iterations 4
smoothSolver:  Solving for k, Initial residual = 0.0189199, Final residual = 0.00117178, No Iterations 5
ExecutionTime = 0.051728 s  ClockTime = 1 s

Time = 16s

smoothSolver:  Solving for Ux, Initial residual = 0.00750268, Final residual = 0.000662451, No Iterations 6
smoothSolver:  Solving for Uy, Initial residual = 0.563442, Final residual = 0.0478111, No Iterations 3
Pressure gradient source: uncorrected Ubar = 1.00006, pressure gradient = 0.000936584
GAMG:  Solving for p, Initial residual = 0.046329, Final residual = 0.00389579, No Iterations 9
time step continuity errors : sum local = 5.90327e-05, global = -4.02341e-18, cumulative = 1.36513e-17
Pressure gradient source: uncorrected Ubar = 1.00001, pressure gradient = 0.00176901
smoothSolver:  Solving for omega, Initial residual = 9.05251e-05, Final residual = 8.31948e-06, No Iterations 4
smoothSolver:  Solving for k, Initial residual = 0.0170616, Final residual = 0.00104613, No Iterations 5
ExecutionTime = 0.053959 s  ClockTime = 1 s

Time = 17s

smoothSolver:  Solving for Ux, Initial residual = 0.00731145, Final residual = 0.0006441, No Iterations 6
smoothSolver:  Solving for Uy, Initial residual = 0.6064, Final residual = 0.0411178, No Iterations 3
Pressure gradient source: uncorrected Ubar = 1.00004, pressure gradient = 0.00106513
GAMG:  Solving for p, Initial residual = 0.0491186, Final residual = 0.00474364, No Iterations 9
time step continuity errors : sum local = 6.02616e-05, global = -2.20714e-18, cumulative = 1.14441e-17
Pressure gradient source: uncorrected Ubar = 1.00001, pressure gradient = 0.0016856
smoothSolver:  Solving for omega, Initial residual = 8.5061e-05, Final residual = 9.76241e-06, No Iterations 4
smoothSolver:  Solving for k, Initial residual = 0.0157881, Final residual = 0.00125876, No Iterations 5
ExecutionTime = 0.056223 s  ClockTime = 1 s

Time = 18s

smoothSolver:  Solving for Ux, Initial residual = 0.00720839, Final residual = 0.000623474, No Iterations 6
smoothSolver:  Solving for Uy, Initial residual = 0.497123, Final residual = 0.0330615, No Iterations 3
Pressure gradient source: uncorrected Ubar = 1.00003, pressure gradient = 0.00117622
GAMG:  Solving for p, Initial residual = 0.0539633, Final residual = 0.00425909, No Iterations 11
time step continuity errors : sum local = 4.78885e-05, global = 3.087e-18, cumulative = 1.45311e-17
Pressure gradient source: uncorrected Ubar = 1, pressure gradient = 0.00162924
smoothSolver:  Solving for omega, Initial residual = 7.56627e-05, Final residual = 6.95372e-06, No Iterations 4
smoothSolver:  Solving for k, Initial residual = 0.0137433, Final residual = 0.00112939, No Iterations 5
ExecutionTime = 0.058642 s  ClockTime = 1 s

Time = 19s

smoothSolver:  Solving for Ux, Initial residual = 0.00716011, Final residual = 0.000610585, No Iterations 6
smoothSolver:  Solving for Uy, Initial residual = 0.382272, Final residual = 0.0250904, No Iterations 3
Pressure gradient source: uncorrected Ubar = 1.00001, pressure gradient = 0.00153392
GAMG:  Solving for p, Initial residual = 0.0554204, Final residual = 0.0051937, No Iterations 11
time step continuity errors : sum local = 4.44718e-05, global = 1.21884e-17, cumulative = 2.67195e-17
Pressure gradient source: uncorrected Ubar = 1, pressure gradient = 0.00162839
smoothSolver:  Solving for omega, Initial residual = 7.19338e-05, Final residual = 7.70831e-06, No Iterations 4
smoothSolver:  Solving for k, Initial residual = 0.0118879, Final residual = 0.000907145, No Iterations 5
ExecutionTime = 0.061247 s  ClockTime = 1 s

Time = 20s

smoothSolver:  Solving for Ux, Initial residual = 0.00708419, Final residual = 0.000595834, No Iterations 6
smoothSolver:  Solving for Uy, Initial residual = 0.339971, Final residual = 0.0197413, No Iterations 3
Pressure gradient source: uncorrected Ubar = 1, pressure gradient = 0.00156548
GAMG:  Solving for p, Initial residual = 0.053262, Final residual = 0.00410091, No Iterations 11
time step continuity errors : sum local = 3.14336e-05, global = 1.81441e-17, cumulative = 4.48637e-17
Pressure gradient source: uncorrected Ubar = 1, pressure gradient = 0.00163077
smoothSolver:  Solving for omega, Initial residual = 6.77438e-05, Final residual = 6.20825e-06, No Iterations 4
smoothSolver:  Solving for k, Initial residual = 0.0107903, Final residual = 0.000769741, No Iterations 5
ExecutionTime = 0.063647 s  ClockTime = 1 s

Time = 21s

smoothSolver:  Solving for Ux, Initial residual = 0.00700246, Final residual = 0.000580536, No Iterations 6
smoothSolver:  Solving for Uy, Initial residual = 0.367993, Final residual = 0.0243559, No Iterations 3
Pressure gradient source: uncorrected Ubar = 0.999997, pressure gradient = 0.00168329
GAMG:  Solving for p, Initial residual = 0.0487352, Final residual = 0.00360192, No Iterations 13
time step continuity errors : sum local = 2.41093e-05, global = -5.4697e-19, cumulative = 4.43167e-17
Pressure gradient source: uncorrected Ubar = 0.999999, pressure gradient = 0.00164772
smoothSolver:  Solving for omega, Initial residual = 6.34877e-05, Final residual = 6.17975e-06, No Iterations 4
smoothSolver:  Solving for k, Initial residual = 0.00967069, Final residual = 0.000660543, No Iterations 5
ExecutionTime = 0.06603 s  ClockTime = 1 s

Time = 22s

smoothSolver:  Solving for Ux, Initial residual = 0.00692259, Final residual = 0.000568083, No Iterations 6
smoothSolver:  Solving for Uy, Initial residual = 0.526491, Final residual = 0.0333257, No Iterations 3
Pressure gradient source: uncorrected Ubar = 0.999984, pressure gradient = 0.00194289
GAMG:  Solving for p, Initial residual = 0.040898, Final residual = 0.00386409, No Iterations 10
time step continuity errors : sum local = 2.3552e-05, global = -7.5846e-18, cumulative = 3.67321e-17
Pressure gradient source: uncorrected Ubar = 0.999997, pressure gradient = 0.00169669
smoothSolver:  Solving for omega, Initial residual = 6.51426e-05, Final residual = 6.29514e-06, No Iterations 4
smoothSolver:  Solving for k, Initial residual = 0.0089875, Final residual = 0.000651831, No Iterations 5
ExecutionTime = 0.068274 s  ClockTime = 1 s

Time = 23s

smoothSolver:  Solving for Ux, Initial residual = 0.00683782, Final residual = 0.000555326, No Iterations 6
smoothSolver:  Solving for Uy, Initial residual = 0.57361, Final residual = 0.0397375, No Iterations 3
Pressure gradient source: uncorrected Ubar = 0.999979, pressure gradient = 0.00209501
GAMG:  Solving for p, Initial residual = 0.0359697, Final residual = 0.00357288, No Iterations 6
time step continuity errors : sum local = 1.98327e-05, global = -8.49733e-19, cumulative = 3.58824e-17
Pressure gradient source: uncorrected Ubar = 0.999997, pressure gradient = 0.00175854
smoothSolver:  Solving for omega, Initial residual = 6.42782e-05, Final residual = 6.0353e-06, No Iterations 4
smoothSolver:  Solving for k, Initial residual = 0.00861675, Final residual = 0.000669153, No Iterations 5
ExecutionTime = 0.070513 s  ClockTime = 1 s

Time = 24s

smoothSolver:  Solving for Ux, Initial residual = 0.00674582, Final residual = 0.000542091, No Iterations 6
smoothSolver:  Solving for Uy, Initial residual = 0.434489, Final residual = 0.0368454, No Iterations 3
Pressure gradient source: uncorrected Ubar = 0.999978, pressure gradient = 0.00218734
GAMG:  Solving for p, Initial residual = 0.0318451, Final residual = 0.00316285, No Iterations 3
time step continuity errors : sum local = 1.58644e-05, global = 3.94057e-18, cumulative = 3.98229e-17
Pressure gradient source: uncorrected Ubar = 0.999997, pressure gradient = 0.00182273
smoothSolver:  Solving for omega, Initial residual = 6.55549e-05, Final residual = 6.72361e-06, No Iterations 4
smoothSolver:  Solving for k, Initial residual = 0.00815072, Final residual = 0.000634468, No Iterations 5
ExecutionTime = 0.072618 s  ClockTime = 1 s

Time = 25s

smoothSolver:  Solving for Ux, Initial residual = 0.0066407, Final residual = 0.000528412, No Iterations 6
smoothSolver:  Solving for Uy, Initial residual = 0.310768, Final residual = 0.0252716, No Iterations 3
Pressure gradient source: uncorrected Ubar = 0.999976, pressure gradient = 0.00230029
GAMG:  Solving for p, Initial residual = 0.0290773, Final residual = 0.00286311, No Iterations 3
time step continuity errors : sum local = 1.37176e-05, global = 8.7273e-18, cumulative = 4.85502e-17
Pressure gradient source: uncorrected Ubar = 0.999997, pressure gradient = 0.00189165
smoothSolver:  Solving for omega, Initial residual = 6.46673e-05, Final residual = 6.31157e-06, No Iterations 4
smoothSolver:  Solving for k, Initial residual = 0.00788778, Final residual = 0.000640565, No Iterations 5
ExecutionTime = 0.074831 s  ClockTime = 1 s

Time = 26s

smoothSolver:  Solving for Ux, Initial residual = 0.00653659, Final residual = 0.000515306, No Iterations 6
smoothSolver:  Solving for Uy, Initial residual = 0.238702, Final residual = 0.0174872, No Iterations 3
Pressure gradient source: uncorrected Ubar = 0.999973, pressure gradient = 0.00243223
GAMG:  Solving for p, Initial residual = 0.0286539, Final residual = 0.00271193, No Iterations 8
time step continuity errors : sum local = 1.1964e-05, global = -1.41634e-18, cumulative = 4.71339e-17
Pressure gradient source: uncorrected Ubar = 0.999996, pressure gradient = 0.00196713
smoothSolver:  Solving for omega, Initial residual = 6.48424e-05, Final residual = 9.32448e-06, No Iterations 3
smoothSolver:  Solving for k, Initial residual = 0.00710375, Final residual = 0.000510492, No Iterations 5
ExecutionTime = 0.077078 s  ClockTime = 1 s

Time = 27s

smoothSolver:  Solving for Ux, Initial residual = 0.00643865, Final residual = 0.000503711, No Iterations 6
smoothSolver:  Solving for Uy, Initial residual = 0.193202, Final residual = 0.016365, No Iterations 3
Pressure gradient source: uncorrected Ubar = 0.999969, pressure gradient = 0.00260947
GAMG:  Solving for p, Initial residual = 0.0333592, Final residual = 0.00234317, No Iterations 13
time step continuity errors : sum local = 8.86595e-06, global = 9.97466e-18, cumulative = 5.71085e-17
Pressure gradient source: uncorrected Ubar = 0.999996, pressure gradient = 0.00205438
smoothSolver:  Solving for omega, Initial residual = 6.48202e-05, Final residual = 9.76685e-06, No Iterations 3
smoothSolver:  Solving for k, Initial residual = 0.00670932, Final residual = 0.00044908, No Iterations 5
ExecutionTime = 0.079434 s  ClockTime = 1 s

Time = 28s

smoothSolver:  Solving for Ux, Initial residual = 0.00633456, Final residual = 0.00049178, No Iterations 6
smoothSolver:  Solving for Uy, Initial residual = 0.174513, Final residual = 0.0141756, No Iterations 3
Pressure gradient source: uncorrected Ubar = 0.999971, pressure gradient = 0.00267012
GAMG:  Solving for p, Initial residual = 0.0415789, Final residual = 0.00343386, No Iterations 11
time step continuity errors : sum local = 8.90565e-06, global = -1.60335e-18, cumulative = 5.55052e-17
Pressure gradient source: uncorrected Ubar = 0.999996, pressure gradient = 0.0021354
smoothSolver:  Solving for omega, Initial residual = 6.52714e-05, Final residual = 6.65952e-06, No Iterations 4
smoothSolver:  Solving for k, Initial residual = 0.00662467, Final residual = 0.000569103, No Iterations 5
ExecutionTime = 0.08172 s  ClockTime = 1 s

Time = 29s

smoothSolver:  Solving for Ux, Initial residual = 0.00622897, Final residual = 0.000479689, No Iterations 6
smoothSolver:  Solving for Uy, Initial residual = 0.169533, Final residual = 0.0126993, No Iterations 3
Pressure gradient source: uncorrected Ubar = 0.999973, pressure gradient = 0.00272178
GAMG:  Solving for p, Initial residual = 0.0567195, Final residual = 0.00494166, No Iterations 11
time step continuity errors : sum local = 8.23527e-06, global = -6.5685e-18, cumulative = 4.89367e-17
Pressure gradient source: uncorrected Ubar = 0.999997, pressure gradient = 0.00220922
smoothSolver:  Solving for omega, Initial residual = 6.40589e-05, Final residual = 7.15182e-06, No Iterations 4
smoothSolver:  Solving for k, Initial residual = 0.00599569, Final residual = 0.000469206, No Iterations 5
ExecutionTime = 0.084054 s  ClockTime = 1 s

Time = 30s

smoothSolver:  Solving for Ux, Initial residual = 0.00612315, Final residual = 0.000467819, No Iterations 6
smoothSolver:  Solving for Uy, Initial residual = 0.16525, Final residual = 0.0129593, No Iterations 3
Pressure gradient source: uncorrected Ubar = 0.999975, pressure gradient = 0.00274596
GAMG:  Solving for p, Initial residual = 0.0541704, Final residual = 0.00465711, No Iterations 11
time step continuity errors : sum local = 6.83063e-06, global = 4.27561e-18, cumulative = 5.32123e-17
Pressure gradient source: uncorrected Ubar = 0.999997, pressure gradient = 0.00227299
smoothSolver:  Solving for omega, Initial residual = 6.17883e-05, Final residual = 9.94515e-06, No Iterations 3
smoothSolver:  Solving for k, Initial residual = 0.00556205, Final residual = 0.000436081, No Iterations 5
ExecutionTime = 0.086383 s  ClockTime = 1 s

Time = 31s

smoothSolver:  Solving for Ux, Initial residual = 0.00603381, Final residual = 0.000457834, No Iterations 6
smoothSolver:  Solving for Uy, Initial residual = 0.186605, Final residual = 0.016504, No Iterations 3
Pressure gradient source: uncorrected Ubar = 0.999972, pressure gradient = 0.00289196
GAMG:  Solving for p, Initial residual = 0.0381404, Final residual = 0.00272936, No Iterations 11
time step continuity errors : sum local = 4.77606e-06, global = -4.48473e-18, cumulative = 4.87276e-17
Pressure gradient source: uncorrected Ubar = 0.999997, pressure gradient = 0.0023458
smoothSolver:  Solving for omega, Initial residual = 6.13397e-05, Final residual = 9.43689e-06, No Iterations 3
smoothSolver:  Solving for k, Initial residual = 0.00517184, Final residual = 0.000359291, No Iterations 5
ExecutionTime = 0.088769 s  ClockTime = 1 s

Time = 32s

smoothSolver:  Solving for Ux, Initial residual = 0.00595019, Final residual = 0.000449027, No Iterations 6
smoothSolver:  Solving for Uy, Initial residual = 0.192436, Final residual = 0.0155582, No Iterations 3
Pressure gradient source: uncorrected Ubar = 0.999968, pressure gradient = 0.0030586
GAMG:  Solving for p, Initial residual = 0.0268222, Final residual = 0.00228019, No Iterations 9
time step continuity errors : sum local = 4.29766e-06, global = -1.46829e-17, cumulative = 3.40447e-17
Pressure gradient source: uncorrected Ubar = 0.999996, pressure gradient = 0.00242957
smoothSolver:  Solving for omega, Initial residual = 6.08892e-05, Final residual = 9.5755e-06, No Iterations 3
smoothSolver:  Solving for k, Initial residual = 0.00484223, Final residual = 0.00034858, No Iterations 5
ExecutionTime = 0.091197 s  ClockTime = 1 s

Time = 33s

smoothSolver:  Solving for Ux, Initial residual = 0.00585807, Final residual = 0.000439343, No Iterations 6
smoothSolver:  Solving for Uy, Initial residual = 0.186247, Final residual = 0.017583, No Iterations 3
Pressure gradient source: uncorrected Ubar = 0.999975, pressure gradient = 0.00299769
GAMG:  Solving for p, Initial residual = 0.0234287, Final residual = 0.00224232, No Iterations 3
time step continuity errors : sum local = 4.21504e-06, global = 5.05149e-18, cumulative = 3.90962e-17
Pressure gradient source: uncorrected Ubar = 0.999997, pressure gradient = 0.00249036
smoothSolver:  Solving for omega, Initial residual = 6.03631e-05, Final residual = 6.1799e-06, No Iterations 4
smoothSolver:  Solving for k, Initial residual = 0.00443611, Final residual = 0.000284511, No Iterations 5
ExecutionTime = 0.093362 s  ClockTime = 1 s

Time = 34s

smoothSolver:  Solving for Ux, Initial residual = 0.00578302, Final residual = 0.000431654, No Iterations 6
smoothSolver:  Solving for Uy, Initial residual = 0.199161, Final residual = 0.0194363, No Iterations 3
Pressure gradient source: uncorrected Ubar = 0.999969, pressure gradient = 0.00321008
GAMG:  Solving for p, Initial residual = 0.0215826, Final residual = 0.00197696, No Iterations 3
time step continuity errors : sum local = 3.46986e-06, global = -8.64277e-19, cumulative = 3.82319e-17
Pressure gradient source: uncorrected Ubar = 0.999997, pressure gradient = 0.00257049
smoothSolver:  Solving for omega, Initial residual = 5.88933e-05, Final residual = 9.88522e-06, No Iterations 3
smoothSolver:  Solving for k, Initial residual = 0.00420184, Final residual = 0.000316697, No Iterations 5
ExecutionTime = 0.09546 s  ClockTime = 1 s

Time = 35s

smoothSolver:  Solving for Ux, Initial residual = 0.00570043, Final residual = 0.000423101, No Iterations 6
smoothSolver:  Solving for Uy, Initial residual = 0.158917, Final residual = 0.0155213, No Iterations 3
Pressure gradient source: uncorrected Ubar = 0.999976, pressure gradient = 0.00313121
GAMG:  Solving for p, Initial residual = 0.0216234, Final residual = 0.00159341, No Iterations 3
time step continuity errors : sum local = 2.62144e-06, global = -2.27918e-18, cumulative = 3.59527e-17
Pressure gradient source: uncorrected Ubar = 0.999998, pressure gradient = 0.00262548
smoothSolver:  Solving for omega, Initial residual = 5.82026e-05, Final residual = 6.41482e-06, No Iterations 4
smoothSolver:  Solving for k, Initial residual = 0.00394224, Final residual = 0.000342105, No Iterations 5
ExecutionTime = 0.097516 s  ClockTime = 1 s

Time = 36s

smoothSolver:  Solving for Ux, Initial residual = 0.00561397, Final residual = 0.000414009, No Iterations 6
smoothSolver:  Solving for Uy, Initial residual = 0.148445, Final residual = 0.0144909, No Iterations 3
Pressure gradient source: uncorrected Ubar = 0.999981, pressure gradient = 0.00307954
GAMG:  Solving for p, Initial residual = 0.0241242, Final residual = 0.00156367, No Iterations 3
time step continuity errors : sum local = 2.18694e-06, global = -1.13755e-17, cumulative = 2.45772e-17
Pressure gradient source: uncorrected Ubar = 0.999998, pressure gradient = 0.00266298
smoothSolver:  Solving for omega, Initial residual = 5.58475e-05, Final residual = 9.10925e-06, No Iterations 3
smoothSolver:  Solving for k, Initial residual = 0.00362699, Final residual = 0.00025543, No Iterations 5
ExecutionTime = 0.099588 s  ClockTime = 1 s

Time = 37s

smoothSolver:  Solving for Ux, Initial residual = 0.00555348, Final residual = 0.000407864, No Iterations 6
smoothSolver:  Solving for Uy, Initial residual = 0.122986, Final residual = 0.0105965, No Iterations 3
Pressure gradient source: uncorrected Ubar = 0.999972, pressure gradient = 0.00333681
GAMG:  Solving for p, Initial residual = 0.0237466, Final residual = 0.00167674, No Iterations 3
time step continuity errors : sum local = 2.06879e-06, global = -1.61857e-18, cumulative = 2.29586e-17
Pressure gradient source: uncorrected Ubar = 0.999997, pressure gradient = 0.00273015
smoothSolver:  Solving for omega, Initial residual = 5.5351e-05, Final residual = 8.08985e-06, No Iterations 3
smoothSolver:  Solving for k, Initial residual = 0.00339352, Final residual = 0.000230302, No Iterations 5
ExecutionTime = 0.10176 s  ClockTime = 1 s

Time = 38s

smoothSolver:  Solving for Ux, Initial residual = 0.00548383, Final residual = 0.000400811, No Iterations 6
smoothSolver:  Solving for Uy, Initial residual = 0.10499, Final residual = 0.00702272, No Iterations 3
Pressure gradient source: uncorrected Ubar = 0.999978, pressure gradient = 0.00326164
GAMG:  Solving for p, Initial residual = 0.0233251, Final residual = 0.00202349, No Iterations 3
time step continuity errors : sum local = 2.1418e-06, global = -1.38237e-18, cumulative = 2.15762e-17
Pressure gradient source: uncorrected Ubar = 0.999998, pressure gradient = 0.00277495
smoothSolver:  Solving for omega, Initial residual = 5.50426e-05, Final residual = 9.07221e-06, No Iterations 3
smoothSolver:  Solving for k, Initial residual = 0.00327036, Final residual = 0.000263006, No Iterations 5
ExecutionTime = 0.103945 s  ClockTime = 1 s

Time = 39s

smoothSolver:  Solving for Ux, Initial residual = 0.00541312, Final residual = 0.000393537, No Iterations 6
smoothSolver:  Solving for Uy, Initial residual = 0.0832736, Final residual = 0.00457449, No Iterations 3
Pressure gradient source: uncorrected Ubar = 0.999981, pressure gradient = 0.0032473
GAMG:  Solving for p, Initial residual = 0.0236373, Final residual = 0.00202317, No Iterations 6
time step continuity errors : sum local = 1.95369e-06, global = -4.01605e-18, cumulative = 1.75602e-17
Pressure gradient source: uncorrected Ubar = 0.999999, pressure gradient = 0.00280958
smoothSolver:  Solving for omega, Initial residual = 5.42983e-05, Final residual = 6.29699e-06, No Iterations 4
smoothSolver:  Solving for k, Initial residual = 0.00313965, Final residual = 0.000181478, No Iterations 5
ExecutionTime = 0.106264 s  ClockTime = 1 s

Time = 40s

smoothSolver:  Solving for Ux, Initial residual = 0.00535234, Final residual = 0.00038749, No Iterations 6
smoothSolver:  Solving for Uy, Initial residual = 0.083623, Final residual = 0.00583044, No Iterations 3
Pressure gradient source: uncorrected Ubar = 0.999978, pressure gradient = 0.00336484
GAMG:  Solving for p, Initial residual = 0.0288732, Final residual = 0.00259827, No Iterations 7
time step continuity errors : sum local = 2.15623e-06, global = 6.85521e-19, cumulative = 1.82457e-17
Pressure gradient source: uncorrected Ubar = 0.999998, pressure gradient = 0.00285464
smoothSolver:  Solving for omega, Initial residual = 5.17981e-05, Final residual = 8.43909e-06, No Iterations 3
smoothSolver:  Solving for k, Initial residual = 0.00319886, Final residual = 0.000213665, No Iterations 5
ExecutionTime = 0.10862 s  ClockTime = 1 s

Time = 41s

smoothSolver:  Solving for Ux, Initial residual = 0.00529313, Final residual = 0.000381823, No Iterations 6
smoothSolver:  Solving for Uy, Initial residual = 0.0641966, Final residual = 0.00318543, No Iterations 3
Pressure gradient source: uncorrected Ubar = 0.999979, pressure gradient = 0.00339636
GAMG:  Solving for p, Initial residual = 0.0259748, Final residual = 0.0025357, No Iterations 8
time step continuity errors : sum local = 2.10664e-06, global = -2.12826e-18, cumulative = 1.61175e-17
Pressure gradient source: uncorrected Ubar = 0.999998, pressure gradient = 0.00289638
smoothSolver:  Solving for omega, Initial residual = 5.14031e-05, Final residual = 8.12605e-06, No Iterations 3
smoothSolver:  Solving for k, Initial residual = 0.00324366, Final residual = 0.000323013, No Iterations 5
ExecutionTime = 0.110829 s  ClockTime = 1 s

Time = 42s

smoothSolver:  Solving for Ux, Initial residual = 0.00523118, Final residual = 0.000375697, No Iterations 6
smoothSolver:  Solving for Uy, Initial residual = 0.0538066, Final residual = 0.00278265, No Iterations 3
Pressure gradient source: uncorrected Ubar = 0.999983, pressure gradient = 0.00333832
GAMG:  Solving for p, Initial residual = 0.0284001, Final residual = 0.00270792, No Iterations 8
time step continuity errors : sum local = 2.24056e-06, global = -7.14792e-19, cumulative = 1.54027e-17
Pressure gradient source: uncorrected Ubar = 0.999999, pressure gradient = 0.00292225
smoothSolver:  Solving for omega, Initial residual = 5.04023e-05, Final residual = 7.83261e-06, No Iterations 3
smoothSolver:  Solving for k, Initial residual = 0.00317031, Final residual = 0.000260096, No Iterations 5
ExecutionTime = 0.113025 s  ClockTime = 1 s

Time = 43s

smoothSolver:  Solving for Ux, Initial residual = 0.00518234, Final residual = 0.000371034, No Iterations 6
smoothSolver:  Solving for Uy, Initial residual = 0.0542115, Final residual = 0.00261896, No Iterations 3
Pressure gradient source: uncorrected Ubar = 0.999978, pressure gradient = 0.00348336
GAMG:  Solving for p, Initial residual = 0.0283617, Final residual = 0.00248536, No Iterations 9
time step continuity errors : sum local = 1.52003e-06, global = 6.88512e-20, cumulative = 1.54715e-17
Pressure gradient source: uncorrected Ubar = 0.999998, pressure gradient = 0.00296405
smoothSolver:  Solving for omega, Initial residual = 4.95317e-05, Final residual = 8.32927e-06, No Iterations 3
smoothSolver:  Solving for k, Initial residual = 0.0032042, Final residual = 0.00026995, No Iterations 5
ExecutionTime = 0.115416 s  ClockTime = 1 s

Time = 44s

smoothSolver:  Solving for Ux, Initial residual = 0.00513101, Final residual = 0.000366037, No Iterations 6
smoothSolver:  Solving for Uy, Initial residual = 0.046418, Final residual = 0.00267243, No Iterations 3
Pressure gradient source: uncorrected Ubar = 0.999981, pressure gradient = 0.0034479
GAMG:  Solving for p, Initial residual = 0.0265669, Final residual = 0.00244216, No Iterations 8
time step continuity errors : sum local = 1.4011e-06, global = -5.49338e-18, cumulative = 9.97814e-18
Pressure gradient source: uncorrected Ubar = 0.999999, pressure gradient = 0.00299351
smoothSolver:  Solving for omega, Initial residual = 4.922e-05, Final residual = 9.05662e-06, No Iterations 3
smoothSolver:  Solving for k, Initial residual = 0.00328507, Final residual = 0.000283044, No Iterations 5
ExecutionTime = 0.117638 s  ClockTime = 1 s

Time = 45s

smoothSolver:  Solving for Ux, Initial residual = 0.00507649, Final residual = 0.000360755, No Iterations 6
smoothSolver:  Solving for Uy, Initial residual = 0.0541351, Final residual = 0.00402663, No Iterations 3
Pressure gradient source: uncorrected Ubar = 0.999984, pressure gradient = 0.00341613
GAMG:  Solving for p, Initial residual = 0.029646, Final residual = 0.00251991, No Iterations 11
time step continuity errors : sum local = 1.13666e-06, global = -7.11988e-18, cumulative = 2.85826e-18
Pressure gradient source: uncorrected Ubar = 0.999999, pressure gradient = 0.0030133
smoothSolver:  Solving for omega, Initial residual = 4.76606e-05, Final residual = 8.42185e-06, No Iterations 3
smoothSolver:  Solving for k, Initial residual = 0.00324436, Final residual = 0.000251098, No Iterations 5
ExecutionTime = 0.120016 s  ClockTime = 1 s

Time = 46s

smoothSolver:  Solving for Ux, Initial residual = 0.0050349, Final residual = 0.000356733, No Iterations 6
smoothSolver:  Solving for Uy, Initial residual = 0.0584429, Final residual = 0.0030933, No Iterations 4
Pressure gradient source: uncorrected Ubar = 0.99998, pressure gradient = 0.00355277
GAMG:  Solving for p, Initial residual = 0.0266968, Final residual = 0.00235018, No Iterations 13
time step continuity errors : sum local = 1.05413e-06, global = 2.52408e-18, cumulative = 5.38234e-18
Pressure gradient source: uncorrected Ubar = 0.999999, pressure gradient = 0.00304889
smoothSolver:  Solving for omega, Initial residual = 4.68933e-05, Final residual = 7.88479e-06, No Iterations 3
smoothSolver:  Solving for k, Initial residual = 0.00332915, Final residual = 0.000267025, No Iterations 5
ExecutionTime = 0.122586 s  ClockTime = 1 s

Time = 47s

smoothSolver:  Solving for Ux, Initial residual = 0.00499004, Final residual = 0.000352465, No Iterations 6
smoothSolver:  Solving for Uy, Initial residual = 0.0582604, Final residual = 0.0055006, No Iterations 3
Pressure gradient source: uncorrected Ubar = 0.999982, pressure gradient = 0.00353252
GAMG:  Solving for p, Initial residual = 0.0253189, Final residual = 0.00236539, No Iterations 10
time step continuity errors : sum local = 1.00787e-06, global = -5.11958e-18, cumulative = 2.62761e-19
Pressure gradient source: uncorrected Ubar = 0.999999, pressure gradient = 0.00307548
smoothSolver:  Solving for omega, Initial residual = 4.60018e-05, Final residual = 8.15041e-06, No Iterations 3
smoothSolver:  Solving for k, Initial residual = 0.00347566, Final residual = 0.000311978, No Iterations 5
ExecutionTime = 0.125 s  ClockTime = 1 s

Time = 48s

smoothSolver:  Solving for Ux, Initial residual = 0.00493963, Final residual = 0.000347647, No Iterations 6
smoothSolver:  Solving for Uy, Initial residual = 0.0580867, Final residual = 0.00526943, No Iterations 3
Pressure gradient source: uncorrected Ubar = 0.999985, pressure gradient = 0.00346983
GAMG:  Solving for p, Initial residual = 0.0261697, Final residual = 0.00244765, No Iterations 10
time step continuity errors : sum local = 1.07197e-06, global = 3.11897e-18, cumulative = 3.38173e-18
Pressure gradient source: uncorrected Ubar = 1, pressure gradient = 0.00308844
smoothSolver:  Solving for omega, Initial residual = 4.48695e-05, Final residual = 7.98614e-06, No Iterations 3
smoothSolver:  Solving for k, Initial residual = 0.00344298, Final residual = 0.00026812, No Iterations 5
ExecutionTime = 0.127389 s  ClockTime = 1 s

Time = 49s

smoothSolver:  Solving for Ux, Initial residual = 0.00490037, Final residual = 0.000344118, No Iterations 6
smoothSolver:  Solving for Uy, Initial residual = 0.0463476, Final residual = 0.0039361, No Iterations 3
Pressure gradient source: uncorrected Ubar = 0.999981, pressure gradient = 0.00359128
GAMG:  Solving for p, Initial residual = 0.0205808, Final residual = 0.00189184, No Iterations 10
time step continuity errors : sum local = 9.45387e-07, global = -3.25717e-18, cumulative = 1.24556e-19
Pressure gradient source: uncorrected Ubar = 0.999999, pressure gradient = 0.00311643
smoothSolver:  Solving for omega, Initial residual = 4.41871e-05, Final residual = 8.27062e-06, No Iterations 3
smoothSolver:  Solving for k, Initial residual = 0.00353547, Final residual = 0.000318779, No Iterations 5
ExecutionTime = 0.129904 s  ClockTime = 1 s

Time = 50s

smoothSolver:  Solving for Ux, Initial residual = 0.00486054, Final residual = 0.000340635, No Iterations 6
smoothSolver:  Solving for Uy, Initial residual = 0.0356691, Final residual = 0.00271647, No Iterations 3
Pressure gradient source: uncorrected Ubar = 0.999983, pressure gradient = 0.00358049
GAMG:  Solving for p, Initial residual = 0.0192892, Final residual = 0.0016734, No Iterations 11
time step continuity errors : sum local = 6.92698e-07, global = -9.68959e-20, cumulative = 2.76604e-20
Pressure gradient source: uncorrected Ubar = 0.999999, pressure gradient = 0.00313803
smoothSolver:  Solving for omega, Initial residual = 4.29995e-05, Final residual = 7.29105e-06, No Iterations 3
smoothSolver:  Solving for k, Initial residual = 0.00368584, Final residual = 0.000355951, No Iterations 5
ExecutionTime = 0.132254 s  ClockTime = 1 s

Time = 51s

smoothSolver:  Solving for Ux, Initial residual = 0.00481844, Final residual = 0.000336602, No Iterations 6
smoothSolver:  Solving for Uy, Initial residual = 0.0424732, Final residual = 0.00400006, No Iterations 3
Pressure gradient source: uncorrected Ubar = 0.999986, pressure gradient = 0.00353136
GAMG:  Solving for p, Initial residual = 0.0196147, Final residual = 0.00181903, No Iterations 9
time step continuity errors : sum local = 7.6654e-07, global = 1.23412e-18, cumulative = 1.26178e-18
Pressure gradient source: uncorrected Ubar = 1, pressure gradient = 0.00314882
smoothSolver:  Solving for omega, Initial residual = 4.24402e-05, Final residual = 7.35058e-06, No Iterations 3
smoothSolver:  Solving for k, Initial residual = 0.00363645, Final residual = 0.000274556, No Iterations 5
ExecutionTime = 0.134491 s  ClockTime = 1 s

Time = 52s

smoothSolver:  Solving for Ux, Initial residual = 0.00478088, Final residual = 0.00033304, No Iterations 6
smoothSolver:  Solving for Uy, Initial residual = 0.041745, Final residual = 0.00369248, No Iterations 3
Pressure gradient source: uncorrected Ubar = 0.999985, pressure gradient = 0.00357548
GAMG:  Solving for p, Initial residual = 0.022028, Final residual = 0.0020931, No Iterations 4
time step continuity errors : sum local = 8.13872e-07, global = 2.53506e-18, cumulative = 3.79684e-18
Pressure gradient source: uncorrected Ubar = 0.999999, pressure gradient = 0.00316388
smoothSolver:  Solving for omega, Initial residual = 4.10877e-05, Final residual = 6.89817e-06, No Iterations 3
smoothSolver:  Solving for k, Initial residual = 0.00372878, Final residual = 0.000329941, No Iterations 5
ExecutionTime = 0.136734 s  ClockTime = 1 s

Time = 53s

smoothSolver:  Solving for Ux, Initial residual = 0.0047481, Final residual = 0.000329954, No Iterations 6
smoothSolver:  Solving for Uy, Initial residual = 0.0531243, Final residual = 0.00276121, No Iterations 4
Pressure gradient source: uncorrected Ubar = 0.999984, pressure gradient = 0.00361587
GAMG:  Solving for p, Initial residual = 0.0238236, Final residual = 0.00211441, No Iterations 11
time step continuity errors : sum local = 8.34515e-07, global = -4.19832e-18, cumulative = -4.0148e-19
Pressure gradient source: uncorrected Ubar = 0.999999, pressure gradient = 0.0031822
smoothSolver:  Solving for omega, Initial residual = 4.07872e-05, Final residual = 7.93341e-06, No Iterations 3
smoothSolver:  Solving for k, Initial residual = 0.00388846, Final residual = 0.000380495, No Iterations 5
ExecutionTime = 0.139662 s  ClockTime = 1 s

Time = 54s

smoothSolver:  Solving for Ux, Initial residual = 0.00470676, Final residual = 0.000326165, No Iterations 6
smoothSolver:  Solving for Uy, Initial residual = 0.0468327, Final residual = 0.00420372, No Iterations 3
Pressure gradient source: uncorrected Ubar = 0.999986, pressure gradient = 0.00356747
GAMG:  Solving for p, Initial residual = 0.022082, Final residual = 0.00203048, No Iterations 10
time step continuity errors : sum local = 8.37724e-07, global = -3.03003e-18, cumulative = -3.43151e-18
Pressure gradient source: uncorrected Ubar = 1, pressure gradient = 0.00319047
smoothSolver:  Solving for omega, Initial residual = 3.99432e-05, Final residual = 8.25689e-06, No Iterations 3
smoothSolver:  Solving for k, Initial residual = 0.00379444, Final residual = 0.000288159, No Iterations 5
ExecutionTime = 0.142057 s  ClockTime = 1 s

Time = 55s

smoothSolver:  Solving for Ux, Initial residual = 0.00467254, Final residual = 0.000323027, No Iterations 6
smoothSolver:  Solving for Uy, Initial residual = 0.0293938, Final residual = 0.00221286, No Iterations 3
Pressure gradient source: uncorrected Ubar = 0.999985, pressure gradient = 0.00362259
GAMG:  Solving for p, Initial residual = 0.0161762, Final residual = 0.00140529, No Iterations 12
time step continuity errors : sum local = 5.98871e-07, global = -8.56139e-19, cumulative = -4.28765e-18
Pressure gradient source: uncorrected Ubar = 0.999999, pressure gradient = 0.00320518
smoothSolver:  Solving for omega, Initial residual = 3.8827e-05, Final residual = 7.56461e-06, No Iterations 3
smoothSolver:  Solving for k, Initial residual = 0.00393879, Final residual = 0.000255711, No Iterations 6
ExecutionTime = 0.144698 s  ClockTime = 1 s

Time = 56s

smoothSolver:  Solving for Ux, Initial residual = 0.00463605, Final residual = 0.00031975, No Iterations 6
smoothSolver:  Solving for Uy, Initial residual = 0.0378048, Final residual = 0.00339319, No Iterations 3
Pressure gradient source: uncorrected Ubar = 0.999986, pressure gradient = 0.00359717
GAMG:  Solving for p, Initial residual = 0.023299, Final residual = 0.00226865, No Iterations 4
time step continuity errors : sum local = 8.55022e-07, global = 7.21094e-18, cumulative = 2.92329e-18
Pressure gradient source: uncorrected Ubar = 1, pressure gradient = 0.00321371
smoothSolver:  Solving for omega, Initial residual = 3.75144e-05, Final residual = 5.88362e-06, No Iterations 3
smoothSolver:  Solving for k, Initial residual = 0.0041129, Final residual = 0.0002735, No Iterations 6
ExecutionTime = 0.14683 s  ClockTime = 1 s

Time = 57s

smoothSolver:  Solving for Ux, Initial residual = 0.00459952, Final residual = 0.000316423, No Iterations 6
smoothSolver:  Solving for Uy, Initial residual = 0.0307219, Final residual = 0.00293586, No Iterations 3
Pressure gradient source: uncorrected Ubar = 0.999987, pressure gradient = 0.00359278
GAMG:  Solving for p, Initial residual = 0.0177094, Final residual = 0.00156943, No Iterations 9
time step continuity errors : sum local = 5.9442e-07, global = 2.06333e-18, cumulative = 4.98662e-18
Pressure gradient source: uncorrected Ubar = 1, pressure gradient = 0.00322024
smoothSolver:  Solving for omega, Initial residual = 3.73705e-05, Final residual = 7.04675e-06, No Iterations 3
smoothSolver:  Solving for k, Initial residual = 0.00413481, Final residual = 0.000398431, No Iterations 5
ExecutionTime = 0.14909 s  ClockTime = 1 s

Time = 58s

smoothSolver:  Solving for Ux, Initial residual = 0.00456451, Final residual = 0.000313362, No Iterations 6
smoothSolver:  Solving for Uy, Initial residual = 0.0373403, Final residual = 0.00342864, No Iterations 3
Pressure gradient source: uncorrected Ubar = 0.999986, pressure gradient = 0.00363214
GAMG:  Solving for p, Initial residual = 0.0186282, Final residual = 0.00182193, No Iterations 7
time step continuity errors : sum local = 7.1267e-07, global = -8.8879e-18, cumulative = -3.90127e-18
Pressure gradient source: uncorrected Ubar = 1, pressure gradient = 0.00323128
smoothSolver:  Solving for omega, Initial residual = 3.65959e-05, Final residual = 6.87716e-06, No Iterations 3
smoothSolver:  Solving for k, Initial residual = 0.00422004, Final residual = 0.000399748, No Iterations 5
ExecutionTime = 0.151395 s  ClockTime = 1 s

Time = 59s

smoothSolver:  Solving for Ux, Initial residual = 0.00453025, Final residual = 0.000310263, No Iterations 6
smoothSolver:  Solving for Uy, Initial residual = 0.0430622, Final residual = 0.0026093, No Iterations 4
Pressure gradient source: uncorrected Ubar = 0.999986, pressure gradient = 0.00362761
GAMG:  Solving for p, Initial residual = 0.0177152, Final residual = 0.00151933, No Iterations 11
time step continuity errors : sum local = 5.85969e-07, global = -4.10836e-18, cumulative = -8.00964e-18
Pressure gradient source: uncorrected Ubar = 1, pressure gradient = 0.00323985
smoothSolver:  Solving for omega, Initial residual = 3.56533e-05, Final residual = 7.01444e-06, No Iterations 3
smoothSolver:  Solving for k, Initial residual = 0.00427811, Final residual = 0.000398288, No Iterations 5
ExecutionTime = 0.153773 s  ClockTime = 1 s

Time = 60s

smoothSolver:  Solving for Ux, Initial residual = 0.00449709, Final residual = 0.000307263, No Iterations 6
smoothSolver:  Solving for Uy, Initial residual = 0.061731, Final residual = 0.00335542, No Iterations 4
Pressure gradient source: uncorrected Ubar = 0.999987, pressure gradient = 0.0036289
GAMG:  Solving for p, Initial residual = 0.02399, Final residual = 0.00201715, No Iterations 4
time step continuity errors : sum local = 7.29534e-07, global = -1.06493e-18, cumulative = -9.07457e-18
Pressure gradient source: uncorrected Ubar = 1, pressure gradient = 0.00324732
smoothSolver:  Solving for omega, Initial residual = 3.48628e-05, Final residual = 6.34653e-06, No Iterations 3
smoothSolver:  Solving for k, Initial residual = 0.00427867, Final residual = 0.00039534, No Iterations 5
ExecutionTime = 0.155922 s  ClockTime = 1 s

Time = 61s

smoothSolver:  Solving for Ux, Initial residual = 0.00446466, Final residual = 0.000304234, No Iterations 6
smoothSolver:  Solving for Uy, Initial residual = 0.0602796, Final residual = 0.00443116, No Iterations 4
Pressure gradient source: uncorrected Ubar = 0.999987, pressure gradient = 0.00362925
GAMG:  Solving for p, Initial residual = 0.0250037, Final residual = 0.00219987, No Iterations 6
time step continuity errors : sum local = 8.57254e-07, global = 1.25404e-17, cumulative = 3.46586e-18
Pressure gradient source: uncorrected Ubar = 1, pressure gradient = 0.00325375
smoothSolver:  Solving for omega, Initial residual = 3.41896e-05, Final residual = 6.2036e-06, No Iterations 3
smoothSolver:  Solving for k, Initial residual = 0.00444773, Final residual = 0.000295492, No Iterations 6
ExecutionTime = 0.158235 s  ClockTime = 1 s

Time = 62s

smoothSolver:  Solving for Ux, Initial residual = 0.00442844, Final residual = 0.000301087, No Iterations 6
smoothSolver:  Solving for Uy, Initial residual = 0.0418143, Final residual = 0.00413702, No Iterations 3
Pressure gradient source: uncorrected Ubar = 0.999986, pressure gradient = 0.00365262
GAMG:  Solving for p, Initial residual = 0.0187123, Final residual = 0.00160597, No Iterations 10
time step continuity errors : sum local = 6.5097e-07, global = -1.26775e-17, cumulative = -9.21164e-18
Pressure gradient source: uncorrected Ubar = 1, pressure gradient = 0.00326262
smoothSolver:  Solving for omega, Initial residual = 3.36436e-05, Final residual = 6.47975e-06, No Iterations 3
smoothSolver:  Solving for k, Initial residual = 0.00451154, Final residual = 0.000297279, No Iterations 6
ExecutionTime = 0.160812 s  ClockTime = 1 s

Time = 63s

smoothSolver:  Solving for Ux, Initial residual = 0.00439384, Final residual = 0.000297906, No Iterations 6
smoothSolver:  Solving for Uy, Initial residual = 0.0269252, Final residual = 0.00250871, No Iterations 3
Pressure gradient source: uncorrected Ubar = 0.999987, pressure gradient = 0.00363981
GAMG:  Solving for p, Initial residual = 0.0162377, Final residual = 0.00137118, No Iterations 11
time step continuity errors : sum local = 5.84492e-07, global = 4.86779e-19, cumulative = -8.72486e-18
Pressure gradient source: uncorrected Ubar = 1, pressure gradient = 0.00326828
smoothSolver:  Solving for omega, Initial residual = 3.30979e-05, Final residual = 6.94497e-06, No Iterations 3
smoothSolver:  Solving for k, Initial residual = 0.0046833, Final residual = 0.000328721, No Iterations 6
ExecutionTime = 0.163149 s  ClockTime = 1 s

Time = 64s

smoothSolver:  Solving for Ux, Initial residual = 0.00435751, Final residual = 0.000294682, No Iterations 6
smoothSolver:  Solving for Uy, Initial residual = 0.0411814, Final residual = 0.00223466, No Iterations 4
Pressure gradient source: uncorrected Ubar = 0.999988, pressure gradient = 0.00363268
GAMG:  Solving for p, Initial residual = 0.0195216, Final residual = 0.00177888, No Iterations 4
time step continuity errors : sum local = 6.10785e-07, global = -5.26461e-18, cumulative = -1.39895e-17
Pressure gradient source: uncorrected Ubar = 1, pressure gradient = 0.00327211
smoothSolver:  Solving for omega, Initial residual = 3.22299e-05, Final residual = 6.61432e-06, No Iterations 3
smoothSolver:  Solving for k, Initial residual = 0.00475115, Final residual = 0.000333555, No Iterations 6
ExecutionTime = 0.165197 s  ClockTime = 1 s

Time = 65s

smoothSolver:  Solving for Ux, Initial residual = 0.00432074, Final residual = 0.000291339, No Iterations 6
smoothSolver:  Solving for Uy, Initial residual = 0.0425715, Final residual = 0.00289249, No Iterations 4
Pressure gradient source: uncorrected Ubar = 0.999988, pressure gradient = 0.00361868
GAMG:  Solving for p, Initial residual = 0.0194584, Final residual = 0.00168208, No Iterations 7
time step continuity errors : sum local = 5.3594e-07, global = 2.33857e-19, cumulative = -1.37556e-17
Pressure gradient source: uncorrected Ubar = 1, pressure gradient = 0.00327351
smoothSolver:  Solving for omega, Initial residual = 3.14444e-05, Final residual = 9.28856e-06, No Iterations 2
smoothSolver:  Solving for k, Initial residual = 0.00477794, Final residual = 0.000442432, No Iterations 5
ExecutionTime = 0.167552 s  ClockTime = 1 s

Time = 66s

smoothSolver:  Solving for Ux, Initial residual = 0.00429073, Final residual = 0.000288355, No Iterations 6
smoothSolver:  Solving for Uy, Initial residual = 0.0518136, Final residual = 0.00370663, No Iterations 4
Pressure gradient source: uncorrected Ubar = 0.999987, pressure gradient = 0.00364898
GAMG:  Solving for p, Initial residual = 0.0217497, Final residual = 0.00151398, No Iterations 4
time step continuity errors : sum local = 5.06415e-07, global = 1.29445e-17, cumulative = -8.11119e-19
Pressure gradient source: uncorrected Ubar = 1, pressure gradient = 0.00327935
smoothSolver:  Solving for omega, Initial residual = 3.15741e-05, Final residual = 9.31803e-06, No Iterations 2
smoothSolver:  Solving for k, Initial residual = 0.005008, Final residual = 0.000323877, No Iterations 6
ExecutionTime = 0.169684 s  ClockTime = 1 s

Time = 67s

smoothSolver:  Solving for Ux, Initial residual = 0.0042565, Final residual = 0.000285348, No Iterations 6
smoothSolver:  Solving for Uy, Initial residual = 0.048412, Final residual = 0.00322454, No Iterations 4
Pressure gradient source: uncorrected Ubar = 0.999986, pressure gradient = 0.00368399
GAMG:  Solving for p, Initial residual = 0.0177647, Final residual = 0.00165081, No Iterations 9
time step continuity errors : sum local = 6.31584e-07, global = 1.58917e-18, cumulative = 7.78048e-19
Pressure gradient source: uncorrected Ubar = 1, pressure gradient = 0.00328966
smoothSolver:  Solving for omega, Initial residual = 3.15857e-05, Final residual = 6.40697e-06, No Iterations 3
smoothSolver:  Solving for k, Initial residual = 0.00499638, Final residual = 0.000471342, No Iterations 5
ExecutionTime = 0.171974 s  ClockTime = 1 s

Time = 68s

smoothSolver:  Solving for Ux, Initial residual = 0.00422435, Final residual = 0.000282673, No Iterations 6
smoothSolver:  Solving for Uy, Initial residual = 0.0494775, Final residual = 0.00240494, No Iterations 4
Pressure gradient source: uncorrected Ubar = 0.999986, pressure gradient = 0.00371032
GAMG:  Solving for p, Initial residual = 0.0218697, Final residual = 0.00187177, No Iterations 4
time step continuity errors : sum local = 6.67767e-07, global = -1.9532e-18, cumulative = -1.17515e-18
Pressure gradient source: uncorrected Ubar = 1, pressure gradient = 0.00330246
smoothSolver:  Solving for omega, Initial residual = 3.05479e-05, Final residual = 6.58715e-06, No Iterations 3
smoothSolver:  Solving for k, Initial residual = 0.00511758, Final residual = 0.000492305, No Iterations 5
ExecutionTime = 0.174231 s  ClockTime = 1 s

Time = 69s

smoothSolver:  Solving for Ux, Initial residual = 0.00418926, Final residual = 0.000279725, No Iterations 6
smoothSolver:  Solving for Uy, Initial residual = 0.0474844, Final residual = 0.00294165, No Iterations 4
Pressure gradient source: uncorrected Ubar = 0.999987, pressure gradient = 0.00368707
GAMG:  Solving for p, Initial residual = 0.0210978, Final residual = 0.00208674, No Iterations 6
time step continuity errors : sum local = 7.46819e-07, global = -8.61099e-19, cumulative = -2.03625e-18
Pressure gradient source: uncorrected Ubar = 1, pressure gradient = 0.00331016
smoothSolver:  Solving for omega, Initial residual = 2.97653e-05, Final residual = 9.14281e-06, No Iterations 2
smoothSolver:  Solving for k, Initial residual = 0.0052315, Final residual = 0.000490971, No Iterations 5
ExecutionTime = 0.17648 s  ClockTime = 1 s

Time = 70s

smoothSolver:  Solving for Ux, Initial residual = 0.00415681, Final residual = 0.000276524, No Iterations 6
smoothSolver:  Solving for Uy, Initial residual = 0.0424158, Final residual = 0.00254369, No Iterations 4
Pressure gradient source: uncorrected Ubar = 0.999988, pressure gradient = 0.00367337
GAMG:  Solving for p, Initial residual = 0.0203072, Final residual = 0.00146999, No Iterations 4
time step continuity errors : sum local = 5.49299e-07, global = 6.40979e-18, cumulative = 4.37354e-18
Pressure gradient source: uncorrected Ubar = 1, pressure gradient = 0.00331511
smoothSolver:  Solving for omega, Initial residual = 2.98417e-05, Final residual = 8.89059e-06, No Iterations 2
smoothSolver:  Solving for k, Initial residual = 0.00542023, Final residual = 0.000505308, No Iterations 5
ExecutionTime = 0.178558 s  ClockTime = 1 s

Time = 71s

smoothSolver:  Solving for Ux, Initial residual = 0.00412263, Final residual = 0.000272984, No Iterations 6
smoothSolver:  Solving for Uy, Initial residual = 0.0550558, Final residual = 0.00342409, No Iterations 4
Pressure gradient source: uncorrected Ubar = 0.999988, pressure gradient = 0.00367783
GAMG:  Solving for p, Initial residual = 0.0249184, Final residual = 0.00177787, No Iterations 4
time step continuity errors : sum local = 6.3504e-07, global = -6.80893e-18, cumulative = -2.43539e-18
Pressure gradient source: uncorrected Ubar = 1, pressure gradient = 0.00332028
smoothSolver:  Solving for omega, Initial residual = 2.96962e-05, Final residual = 9.77122e-06, No Iterations 2
smoothSolver:  Solving for k, Initial residual = 0.00567872, Final residual = 0.000387854, No Iterations 6
ExecutionTime = 0.180635 s  ClockTime = 1 s

Time = 72s

smoothSolver:  Solving for Ux, Initial residual = 0.00408629, Final residual = 0.00026967, No Iterations 6
smoothSolver:  Solving for Uy, Initial residual = 0.0438898, Final residual = 0.00261982, No Iterations 4
Pressure gradient source: uncorrected Ubar = 0.999987, pressure gradient = 0.00371154
GAMG:  Solving for p, Initial residual = 0.0159943, Final residual = 0.00132169, No Iterations 7
time step continuity errors : sum local = 5.52796e-07, global = 7.65003e-19, cumulative = -1.67039e-18
Pressure gradient source: uncorrected Ubar = 1, pressure gradient = 0.00332996
smoothSolver:  Solving for omega, Initial residual = 2.94766e-05, Final residual = 9.81778e-06, No Iterations 2
smoothSolver:  Solving for k, Initial residual = 0.00594784, Final residual = 0.00044265, No Iterations 6
ExecutionTime = 0.182979 s  ClockTime = 1 s

Time = 73s

smoothSolver:  Solving for Ux, Initial residual = 0.00404873, Final residual = 0.000403132, No Iterations 5
smoothSolver:  Solving for Uy, Initial residual = 0.0416999, Final residual = 0.00360505, No Iterations 3
Pressure gradient source: uncorrected Ubar = 0.99998, pressure gradient = 0.00392824
GAMG:  Solving for p, Initial residual = 0.0178252, Final residual = 0.00165428, No Iterations 4
time step continuity errors : sum local = 6.17342e-07, global = 8.7073e-18, cumulative = 7.03691e-18
Pressure gradient source: uncorrected Ubar = 0.999999, pressure gradient = 0.00335764
smoothSolver:  Solving for omega, Initial residual = 2.85903e-05, Final residual = 9.02257e-06, No Iterations 2
smoothSolver:  Solving for k, Initial residual = 0.00600222, Final residual = 0.000401284, No Iterations 6
ExecutionTime = 0.185043 s  ClockTime = 1 s

Time = 74s

smoothSolver:  Solving for Ux, Initial residual = 0.00400981, Final residual = 0.000398263, No Iterations 5
smoothSolver:  Solving for Uy, Initial residual = 0.0481982, Final residual = 0.00242819, No Iterations 4
Pressure gradient source: uncorrected Ubar = 0.999983, pressure gradient = 0.00386123
GAMG:  Solving for p, Initial residual = 0.0211587, Final residual = 0.00197032, No Iterations 9
time step continuity errors : sum local = 7.18041e-07, global = 1.51496e-18, cumulative = 8.55187e-18
Pressure gradient source: uncorrected Ubar = 1, pressure gradient = 0.00337148
smoothSolver:  Solving for omega, Initial residual = 2.85404e-05, Final residual = 8.75165e-06, No Iterations 2
smoothSolver:  Solving for k, Initial residual = 0.00617626, Final residual = 0.000603334, No Iterations 5
ExecutionTime = 0.187285 s  ClockTime = 1 s

Time = 75s

smoothSolver:  Solving for Ux, Initial residual = 0.00396684, Final residual = 0.00039266, No Iterations 5
smoothSolver:  Solving for Uy, Initial residual = 0.0420138, Final residual = 0.00279246, No Iterations 4
Pressure gradient source: uncorrected Ubar = 0.999984, pressure gradient = 0.00384589
GAMG:  Solving for p, Initial residual = 0.0171803, Final residual = 0.0013976, No Iterations 13
time step continuity errors : sum local = 5.41379e-07, global = -6.34652e-19, cumulative = 7.91722e-18
Pressure gradient source: uncorrected Ubar = 1, pressure gradient = 0.0033814
smoothSolver:  Solving for omega, Initial residual = 2.8117e-05, Final residual = 9.62059e-06, No Iterations 2
smoothSolver:  Solving for k, Initial residual = 0.00638783, Final residual = 0.000416396, No Iterations 6
ExecutionTime = 0.189797 s  ClockTime = 1 s

Time = 76s

smoothSolver:  Solving for Ux, Initial residual = 0.00392082, Final residual = 0.00038685, No Iterations 5
smoothSolver:  Solving for Uy, Initial residual = 0.0570878, Final residual = 0.0042972, No Iterations 4
Pressure gradient source: uncorrected Ubar = 0.999984, pressure gradient = 0.00386173
GAMG:  Solving for p, Initial residual = 0.0170955, Final residual = 0.00139014, No Iterations 6
time step continuity errors : sum local = 6.36232e-07, global = 1.34793e-18, cumulative = 9.26515e-18
Pressure gradient source: uncorrected Ubar = 1, pressure gradient = 0.00339277
smoothSolver:  Solving for omega, Initial residual = 2.78121e-05, Final residual = 9.61059e-06, No Iterations 2
smoothSolver:  Solving for k, Initial residual = 0.00655915, Final residual = 0.000424068, No Iterations 6
ExecutionTime = 0.192076 s  ClockTime = 1 s

Time = 77s

smoothSolver:  Solving for Ux, Initial residual = 0.00386243, Final residual = 0.000380914, No Iterations 5
smoothSolver:  Solving for Uy, Initial residual = 0.0566737, Final residual = 0.00430876, No Iterations 4
Pressure gradient source: uncorrected Ubar = 0.999985, pressure gradient = 0.00386546
GAMG:  Solving for p, Initial residual = 0.0165507, Final residual = 0.00144354, No Iterations 9
time step continuity errors : sum local = 6.00882e-07, global = -3.90355e-18, cumulative = 5.36159e-18
Pressure gradient source: uncorrected Ubar = 1, pressure gradient = 0.00340356
smoothSolver:  Solving for omega, Initial residual = 2.74009e-05, Final residual = 9.0423e-06, No Iterations 2
smoothSolver:  Solving for k, Initial residual = 0.0066459, Final residual = 0.00063719, No Iterations 5
ExecutionTime = 0.194322 s  ClockTime = 1 s

Time = 78s

smoothSolver:  Solving for Ux, Initial residual = 0.0037786, Final residual = 0.000373475, No Iterations 5
smoothSolver:  Solving for Uy, Initial residual = 0.0545693, Final residual = 0.00409443, No Iterations 4
Pressure gradient source: uncorrected Ubar = 0.999986, pressure gradient = 0.00382385
GAMG:  Solving for p, Initial residual = 0.0232722, Final residual = 0.00227174, No Iterations 7
time step continuity errors : sum local = 1.15716e-06, global = -6.50757e-18, cumulative = -1.14597e-18
Pressure gradient source: uncorrected Ubar = 1, pressure gradient = 0.00340702
smoothSolver:  Solving for omega, Initial residual = 2.67304e-05, Final residual = 7.88611e-06, No Iterations 2
smoothSolver:  Solving for k, Initial residual = 0.0069203, Final residual = 0.000449714, No Iterations 6
ExecutionTime = 0.196626 s  ClockTime = 1 s

Time = 79s

smoothSolver:  Solving for Ux, Initial residual = 0.00369665, Final residual = 0.000365735, No Iterations 5
smoothSolver:  Solving for Uy, Initial residual = 0.041163, Final residual = 0.00245236, No Iterations 4
Pressure gradient source: uncorrected Ubar = 0.999986, pressure gradient = 0.00382959
GAMG:  Solving for p, Initial residual = 0.0121306, Final residual = 0.000884687, No Iterations 6
time step continuity errors : sum local = 5.23873e-07, global = -7.71862e-18, cumulative = -8.86459e-18
Pressure gradient source: uncorrected Ubar = 1, pressure gradient = 0.00341146
smoothSolver:  Solving for omega, Initial residual = 2.66272e-05, Final residual = 9.12193e-06, No Iterations 2
smoothSolver:  Solving for k, Initial residual = 0.00709964, Final residual = 0.000708073, No Iterations 5
ExecutionTime = 0.198769 s  ClockTime = 1 s

Time = 80s

smoothSolver:  Solving for Ux, Initial residual = 0.00363083, Final residual = 0.000358663, No Iterations 5
smoothSolver:  Solving for Uy, Initial residual = 0.0360374, Final residual = 0.00191408, No Iterations 4
Pressure gradient source: uncorrected Ubar = 0.999986, pressure gradient = 0.00384524
GAMG:  Solving for p, Initial residual = 0.0137438, Final residual = 0.000779474, No Iterations 3
time step continuity errors : sum local = 3.90516e-07, global = -1.33931e-17, cumulative = -2.22577e-17
Pressure gradient source: uncorrected Ubar = 1, pressure gradient = 0.00341822
smoothSolver:  Solving for omega, Initial residual = 2.63704e-05, Final residual = 9.28126e-06, No Iterations 2
smoothSolver:  Solving for k, Initial residual = 0.00738281, Final residual = 0.000534574, No Iterations 6
ExecutionTime = 0.200806 s  ClockTime = 1 s

Time = 81s

smoothSolver:  Solving for Ux, Initial residual = 0.00356701, Final residual = 0.000351419, No Iterations 5
smoothSolver:  Solving for Uy, Initial residual = 0.0384346, Final residual = 0.00256286, No Iterations 4
Pressure gradient source: uncorrected Ubar = 0.999987, pressure gradient = 0.00382682
GAMG:  Solving for p, Initial residual = 0.0146383, Final residual = 0.000646522, No Iterations 4
time step continuity errors : sum local = 3.36414e-07, global = -1.05214e-17, cumulative = -3.2779e-17
Pressure gradient source: uncorrected Ubar = 1, pressure gradient = 0.00342192
smoothSolver:  Solving for omega, Initial residual = 2.56506e-05, Final residual = 8.20915e-06, No Iterations 2
smoothSolver:  Solving for k, Initial residual = 0.00754293, Final residual = 0.00052681, No Iterations 6
ExecutionTime = 0.202829 s  ClockTime = 1 s

Time = 82s

smoothSolver:  Solving for Ux, Initial residual = 0.00349866, Final residual = 0.000343975, No Iterations 5
smoothSolver:  Solving for Uy, Initial residual = 0.063554, Final residual = 0.00488905, No Iterations 4
Pressure gradient source: uncorrected Ubar = 0.999986, pressure gradient = 0.00383706
GAMG:  Solving for p, Initial residual = 0.013191, Final residual = 0.00117518, No Iterations 3
time step continuity errors : sum local = 5.64296e-07, global = 1.03889e-17, cumulative = -2.23901e-17
Pressure gradient source: uncorrected Ubar = 1, pressure gradient = 0.00342737
smoothSolver:  Solving for omega, Initial residual = 2.52403e-05, Final residual = 7.66067e-06, No Iterations 2
smoothSolver:  Solving for k, Initial residual = 0.00766368, Final residual = 0.000486827, No Iterations 6
ExecutionTime = 0.205121 s  ClockTime = 1 s

Time = 83s

smoothSolver:  Solving for Ux, Initial residual = 0.00343004, Final residual = 0.000336374, No Iterations 5
smoothSolver:  Solving for Uy, Initial residual = 0.0549707, Final residual = 0.00415398, No Iterations 4
Pressure gradient source: uncorrected Ubar = 0.999987, pressure gradient = 0.00381555
GAMG:  Solving for p, Initial residual = 0.0108255, Final residual = 0.000791329, No Iterations 4
time step continuity errors : sum local = 3.78888e-07, global = 4.40012e-18, cumulative = -1.799e-17
Pressure gradient source: uncorrected Ubar = 1, pressure gradient = 0.00342947
smoothSolver:  Solving for omega, Initial residual = 2.52417e-05, Final residual = 9.10846e-06, No Iterations 2
smoothSolver:  Solving for k, Initial residual = 0.00779981, Final residual = 0.000495025, No Iterations 6
ExecutionTime = 0.207299 s  ClockTime = 1 s

Time = 84s

smoothSolver:  Solving for Ux, Initial residual = 0.00336861, Final residual = 0.000329575, No Iterations 5
smoothSolver:  Solving for Uy, Initial residual = 0.0349221, Final residual = 0.00317552, No Iterations 3
Pressure gradient source: uncorrected Ubar = 0.999987, pressure gradient = 0.00383204
GAMG:  Solving for p, Initial residual = 0.01441, Final residual = 0.00129385, No Iterations 3
time step continuity errors : sum local = 6.39467e-07, global = 2.01267e-18, cumulative = -1.59774e-17
Pressure gradient source: uncorrected Ubar = 1, pressure gradient = 0.0034345
smoothSolver:  Solving for omega, Initial residual = 2.46229e-05, Final residual = 8.52652e-06, No Iterations 2
smoothSolver:  Solving for k, Initial residual = 0.00789708, Final residual = 0.000507713, No Iterations 6
ExecutionTime = 0.209428 s  ClockTime = 1 s

Time = 85s

smoothSolver:  Solving for Ux, Initial residual = 0.00331234, Final residual = 0.000323341, No Iterations 5
smoothSolver:  Solving for Uy, Initial residual = 0.0443022, Final residual = 0.00344034, No Iterations 4
Pressure gradient source: uncorrected Ubar = 0.999986, pressure gradient = 0.00384847
GAMG:  Solving for p, Initial residual = 0.0115579, Final residual = 0.00111084, No Iterations 12
time step continuity errors : sum local = 5.52698e-07, global = -1.06996e-17, cumulative = -2.6677e-17
Pressure gradient source: uncorrected Ubar = 1, pressure gradient = 0.00344213
smoothSolver:  Solving for omega, Initial residual = 2.41004e-05, Final residual = 7.85646e-06, No Iterations 2
smoothSolver:  Solving for k, Initial residual = 0.00814161, Final residual = 0.000573791, No Iterations 6
ExecutionTime = 0.211857 s  ClockTime = 1 s

Time = 86s

smoothSolver:  Solving for Ux, Initial residual = 0.00325331, Final residual = 0.000316643, No Iterations 5
smoothSolver:  Solving for Uy, Initial residual = 0.0606507, Final residual = 0.00416569, No Iterations 4
Pressure gradient source: uncorrected Ubar = 0.999987, pressure gradient = 0.0038401
GAMG:  Solving for p, Initial residual = 0.018031, Final residual = 0.00154059, No Iterations 4
time step continuity errors : sum local = 7.04332e-07, global = 5.37233e-18, cumulative = -2.13046e-17
Pressure gradient source: uncorrected Ubar = 1, pressure gradient = 0.00344825
smoothSolver:  Solving for omega, Initial residual = 2.37605e-05, Final residual = 7.50677e-06, No Iterations 2
smoothSolver:  Solving for k, Initial residual = 0.00825987, Final residual = 0.00058048, No Iterations 6
ExecutionTime = 0.213915 s  ClockTime = 1 s

Time = 87s

smoothSolver:  Solving for Ux, Initial residual = 0.0031917, Final residual = 0.000309904, No Iterations 5
smoothSolver:  Solving for Uy, Initial residual = 0.0383057, Final residual = 0.00195703, No Iterations 4
Pressure gradient source: uncorrected Ubar = 0.999987, pressure gradient = 0.00384017
GAMG:  Solving for p, Initial residual = 0.0107594, Final residual = 0.000992631, No Iterations 13
time step continuity errors : sum local = 5.3274e-07, global = 2.40139e-18, cumulative = -1.89033e-17
Pressure gradient source: uncorrected Ubar = 1, pressure gradient = 0.00345433
smoothSolver:  Solving for omega, Initial residual = 2.35647e-05, Final residual = 8.35236e-06, No Iterations 2
smoothSolver:  Solving for k, Initial residual = 0.00842045, Final residual = 0.000570307, No Iterations 6
ExecutionTime = 0.216231 s  ClockTime = 1 s

Time = 88s

smoothSolver:  Solving for Ux, Initial residual = 0.00312829, Final residual = 0.000302988, No Iterations 5
smoothSolver:  Solving for Uy, Initial residual = 0.041455, Final residual = 0.00261728, No Iterations 4
Pressure gradient source: uncorrected Ubar = 0.999988, pressure gradient = 0.00383494
GAMG:  Solving for p, Initial residual = 0.0136018, Final residual = 0.00113324, No Iterations 15
time step continuity errors : sum local = 5.03681e-07, global = 3.64208e-18, cumulative = -1.52612e-17
Pressure gradient source: uncorrected Ubar = 1, pressure gradient = 0.00345947
smoothSolver:  Solving for omega, Initial residual = 2.29621e-05, Final residual = 8.14458e-06, No Iterations 2
smoothSolver:  Solving for k, Initial residual = 0.00853055, Final residual = 0.000580341, No Iterations 6
ExecutionTime = 0.218753 s  ClockTime = 1 s

Time = 89s

smoothSolver:  Solving for Ux, Initial residual = 0.00307014, Final residual = 0.000297037, No Iterations 5
smoothSolver:  Solving for Uy, Initial residual = 0.0431663, Final residual = 0.00240424, No Iterations 4
Pressure gradient source: uncorrected Ubar = 0.999987, pressure gradient = 0.00386726
[...]
smoothSolver:  Solving for omega, Initial residual = 6.30341e-06, Final residual = 6.30341e-06, No Iterations 0
smoothSolver:  Solving for k, Initial residual = 0.000161584, Final residual = 1.17897e-05, No Iterations 5
ExecutionTime = 0.747186 s  ClockTime = 1 s

Time = 328s

smoothSolver:  Solving for Ux, Initial residual = 6.53402e-05, Final residual = 6.78398e-06, No Iterations 5
smoothSolver:  Solving for Uy, Initial residual = 0.0574519, Final residual = 0.00423629, No Iterations 3
Pressure gradient source: uncorrected Ubar = 1, pressure gradient = 0.00365838
GAMG:  Solving for p, Initial residual = 0.0124594, Final residual = 0.000660237, No Iterations 3
time step continuity errors : sum local = 1.48354e-08, global = -4.90215e-18, cumulative = -9.93986e-17
Pressure gradient source: uncorrected Ubar = 1, pressure gradient = 0.00365152
smoothSolver:  Solving for omega, Initial residual = 6.31238e-06, Final residual = 6.31238e-06, No Iterations 0
smoothSolver:  Solving for k, Initial residual = 0.000156639, Final residual = 1.46527e-05, No Iterations 5
ExecutionTime = 0.749164 s  ClockTime = 1 s

Time = 329s

smoothSolver:  Solving for Ux, Initial residual = 6.48792e-05, Final residual = 6.74448e-06, No Iterations 5
smoothSolver:  Solving for Uy, Initial residual = 0.0508534, Final residual = 0.00421099, No Iterations 3
Pressure gradient source: uncorrected Ubar = 1, pressure gradient = 0.00365879
GAMG:  Solving for p, Initial residual = 0.0108468, Final residual = 0.000492052, No Iterations 3
time step continuity errors : sum local = 1.20143e-08, global = 9.52628e-18, cumulative = -8.98723e-17
Pressure gradient source: uncorrected Ubar = 1, pressure gradient = 0.00365211
smoothSolver:  Solving for omega, Initial residual = 6.31785e-06, Final residual = 6.31785e-06, No Iterations 0
smoothSolver:  Solving for k, Initial residual = 0.000149306, Final residual = 1.03308e-05, No Iterations 6
ExecutionTime = 0.751209 s  ClockTime = 1 s

Time = 330s

smoothSolver:  Solving for Ux, Initial residual = 6.4591e-05, Final residual = 6.71655e-06, No Iterations 5
smoothSolver:  Solving for Uy, Initial residual = 0.034471, Final residual = 0.00267745, No Iterations 3
Pressure gradient source: uncorrected Ubar = 1, pressure gradient = 0.00365885
GAMG:  Solving for p, Initial residual = 0.0074768, Final residual = 0.000342601, No Iterations 3
time step continuity errors : sum local = 8.85859e-09, global = 2.17998e-18, cumulative = -8.76923e-17
Pressure gradient source: uncorrected Ubar = 1, pressure gradient = 0.0036526
smoothSolver:  Solving for omega, Initial residual = 6.31909e-06, Final residual = 6.31909e-06, No Iterations 0
smoothSolver:  Solving for k, Initial residual = 0.000143157, Final residual = 1.22334e-05, No Iterations 6
ExecutionTime = 0.753237 s  ClockTime = 1 s

Time = 331s

smoothSolver:  Solving for Ux, Initial residual = 6.42465e-05, Final residual = 6.68074e-06, No Iterations 5
smoothSolver:  Solving for Uy, Initial residual = 0.033139, Final residual = 0.00258165, No Iterations 3
Pressure gradient source: uncorrected Ubar = 1, pressure gradient = 0.00365947
GAMG:  Solving for p, Initial residual = 0.00644565, Final residual = 0.000435128, No Iterations 3
time step continuity errors : sum local = 1.12452e-08, global = 6.11641e-18, cumulative = -8.15759e-17
Pressure gradient source: uncorrected Ubar = 1, pressure gradient = 0.0036531
smoothSolver:  Solving for omega, Initial residual = 6.33371e-06, Final residual = 6.33371e-06, No Iterations 0
smoothSolver:  Solving for k, Initial residual = 0.000133717, Final residual = 9.97609e-06, No Iterations 6
ExecutionTime = 0.755278 s  ClockTime = 1 s

Time = 332s

smoothSolver:  Solving for Ux, Initial residual = 6.3799e-05, Final residual = 9.99565e-06, No Iterations 4
smoothSolver:  Solving for Uy, Initial residual = 0.0297948, Final residual = 0.00261217, No Iterations 3
Pressure gradient source: uncorrected Ubar = 1, pressure gradient = 0.00366169
GAMG:  Solving for p, Initial residual = 0.00776781, Final residual = 0.000554189, No Iterations 17
time step continuity errors : sum local = 1.55272e-08, global = 3.50337e-19, cumulative = -8.12256e-17
Pressure gradient source: uncorrected Ubar = 1, pressure gradient = 0.00365377
smoothSolver:  Solving for omega, Initial residual = 6.41263e-06, Final residual = 6.41263e-06, No Iterations 0
smoothSolver:  Solving for k, Initial residual = 0.000126298, Final residual = 1.01416e-05, No Iterations 6
ExecutionTime = 0.757845 s  ClockTime = 1 s

Time = 333s

smoothSolver:  Solving for Ux, Initial residual = 6.3287e-05, Final residual = 9.94349e-06, No Iterations 4
smoothSolver:  Solving for Uy, Initial residual = 0.0355289, Final residual = 0.00328222, No Iterations 3
Pressure gradient source: uncorrected Ubar = 1, pressure gradient = 0.00366124
GAMG:  Solving for p, Initial residual = 0.00537587, Final residual = 0.000522229, No Iterations 14
time step continuity errors : sum local = 1.47626e-08, global = -8.04067e-18, cumulative = -8.92662e-17
Pressure gradient source: uncorrected Ubar = 1, pressure gradient = 0.00365426
smoothSolver:  Solving for omega, Initial residual = 6.54012e-06, Final residual = 6.54012e-06, No Iterations 0
smoothSolver:  Solving for k, Initial residual = 0.000119683, Final residual = 1.02975e-05, No Iterations 6
ExecutionTime = 0.76031 s  ClockTime = 1 s

Time = 334s

smoothSolver:  Solving for Ux, Initial residual = 6.29246e-05, Final residual = 9.90179e-06, No Iterations 4
smoothSolver:  Solving for Uy, Initial residual = 0.046647, Final residual = 0.00456522, No Iterations 3
Pressure gradient source: uncorrected Ubar = 1, pressure gradient = 0.00366149
GAMG:  Solving for p, Initial residual = 0.00453893, Final residual = 0.00040538, No Iterations 12
time step continuity errors : sum local = 1.19124e-08, global = -1.75758e-19, cumulative = -8.9442e-17
Pressure gradient source: uncorrected Ubar = 1, pressure gradient = 0.0036547
smoothSolver:  Solving for omega, Initial residual = 6.66281e-06, Final residual = 6.66281e-06, No Iterations 0
smoothSolver:  Solving for k, Initial residual = 0.00011011, Final residual = 8.30113e-06, No Iterations 6
ExecutionTime = 0.762626 s  ClockTime = 1 s

Time = 335s

smoothSolver:  Solving for Ux, Initial residual = 6.2521e-05, Final residual = 9.84768e-06, No Iterations 4
smoothSolver:  Solving for Uy, Initial residual = 0.0454239, Final residual = 0.00442803, No Iterations 3
Pressure gradient source: uncorrected Ubar = 1, pressure gradient = 0.00366157
GAMG:  Solving for p, Initial residual = 0.00519829, Final residual = 0.000470319, No Iterations 12
time step continuity errors : sum local = 1.37604e-08, global = -3.09352e-19, cumulative = -8.97513e-17
Pressure gradient source: uncorrected Ubar = 1, pressure gradient = 0.00365508
smoothSolver:  Solving for omega, Initial residual = 6.78141e-06, Final residual = 6.78141e-06, No Iterations 0
smoothSolver:  Solving for k, Initial residual = 0.0001015, Final residual = 9.92919e-06, No Iterations 5
ExecutionTime = 0.764902 s  ClockTime = 1 s

Time = 336s

smoothSolver:  Solving for Ux, Initial residual = 6.20726e-05, Final residual = 9.78622e-06, No Iterations 4
smoothSolver:  Solving for Uy, Initial residual = 0.0275882, Final residual = 0.00144349, No Iterations 4
Pressure gradient source: uncorrected Ubar = 1, pressure gradient = 0.00366174
GAMG:  Solving for p, Initial residual = 0.00514508, Final residual = 0.000378093, No Iterations 9
time step continuity errors : sum local = 1.08318e-08, global = 6.40933e-18, cumulative = -8.3342e-17
Pressure gradient source: uncorrected Ubar = 1, pressure gradient = 0.00365543
smoothSolver:  Solving for omega, Initial residual = 6.89595e-06, Final residual = 6.89595e-06, No Iterations 0
smoothSolver:  Solving for k, Initial residual = 9.54172e-05, Final residual = 9.36838e-06, No Iterations 5
ExecutionTime = 0.767119 s  ClockTime = 1 s

Time = 337s

smoothSolver:  Solving for Ux, Initial residual = 6.16056e-05, Final residual = 9.71919e-06, No Iterations 4
smoothSolver:  Solving for Uy, Initial residual = 0.0168597, Final residual = 0.00122905, No Iterations 3
Pressure gradient source: uncorrected Ubar = 1, pressure gradient = 0.00366215
GAMG:  Solving for p, Initial residual = 0.00467098, Final residual = 0.000385592, No Iterations 4
time step continuity errors : sum local = 1.11214e-08, global = 8.05022e-18, cumulative = -7.52918e-17
Pressure gradient source: uncorrected Ubar = 1, pressure gradient = 0.0036558
smoothSolver:  Solving for omega, Initial residual = 7.00524e-06, Final residual = 7.00524e-06, No Iterations 0
smoothSolver:  Solving for k, Initial residual = 8.78185e-05, Final residual = 6.34283e-06, No Iterations 5
ExecutionTime = 0.769174 s  ClockTime = 1 s

Time = 338s

smoothSolver:  Solving for Ux, Initial residual = 6.10031e-05, Final residual = 9.64452e-06, No Iterations 4
smoothSolver:  Solving for Uy, Initial residual = 0.0326827, Final residual = 0.00212114, No Iterations 3
Pressure gradient source: uncorrected Ubar = 1, pressure gradient = 0.00366241
GAMG:  Solving for p, Initial residual = 0.00541993, Final residual = 0.000485863, No Iterations 3
time step continuity errors : sum local = 1.29759e-08, global = -9.3357e-19, cumulative = -7.62254e-17
Pressure gradient source: uncorrected Ubar = 1, pressure gradient = 0.00365615
smoothSolver:  Solving for omega, Initial residual = 7.11064e-06, Final residual = 7.11064e-06, No Iterations 0
smoothSolver:  Solving for k, Initial residual = 8.08025e-05, Final residual = 7.82965e-06, No Iterations 4
ExecutionTime = 0.771317 s  ClockTime = 1 s

Time = 339s

smoothSolver:  Solving for Ux, Initial residual = 6.03091e-05, Final residual = 9.55336e-06, No Iterations 4
smoothSolver:  Solving for Uy, Initial residual = 0.0244566, Final residual = 0.00207937, No Iterations 3
Pressure gradient source: uncorrected Ubar = 1, pressure gradient = 0.00366269
GAMG:  Solving for p, Initial residual = 0.00526596, Final residual = 0.000489946, No Iterations 3
time step continuity errors : sum local = 1.39663e-08, global = -3.88959e-18, cumulative = -8.0115e-17
Pressure gradient source: uncorrected Ubar = 1, pressure gradient = 0.0036565
smoothSolver:  Solving for omega, Initial residual = 7.21524e-06, Final residual = 7.21524e-06, No Iterations 0
smoothSolver:  Solving for k, Initial residual = 8.17632e-05, Final residual = 8.43748e-06, No Iterations 5
ExecutionTime = 0.773621 s  ClockTime = 1 s

Time = 340s

smoothSolver:  Solving for Ux, Initial residual = 5.96879e-05, Final residual = 9.44884e-06, No Iterations 4
smoothSolver:  Solving for Uy, Initial residual = 0.0226189, Final residual = 0.00202256, No Iterations 3
Pressure gradient source: uncorrected Ubar = 1, pressure gradient = 0.00366275
GAMG:  Solving for p, Initial residual = 0.00511941, Final residual = 0.000443661, No Iterations 6
time step continuity errors : sum local = 1.3439e-08, global = 2.52152e-18, cumulative = -7.75934e-17
Pressure gradient source: uncorrected Ubar = 1, pressure gradient = 0.0036568
smoothSolver:  Solving for omega, Initial residual = 7.32001e-06, Final residual = 7.32001e-06, No Iterations 0
smoothSolver:  Solving for k, Initial residual = 7.74387e-05, Final residual = 8.98533e-06, No Iterations 5
ExecutionTime = 0.776039 s  ClockTime = 1 s

Time = 341s

smoothSolver:  Solving for Ux, Initial residual = 5.90263e-05, Final residual = 9.33729e-06, No Iterations 4
smoothSolver:  Solving for Uy, Initial residual = 0.0269157, Final residual = 0.00218847, No Iterations 3
Pressure gradient source: uncorrected Ubar = 1, pressure gradient = 0.00366273
GAMG:  Solving for p, Initial residual = 0.00523387, Final residual = 0.000481408, No Iterations 7
time step continuity errors : sum local = 1.29619e-08, global = -7.82425e-19, cumulative = -7.83759e-17
Pressure gradient source: uncorrected Ubar = 1, pressure gradient = 0.00365706
smoothSolver:  Solving for omega, Initial residual = 7.42086e-06, Final residual = 7.42086e-06, No Iterations 0
smoothSolver:  Solving for k, Initial residual = 7.17934e-05, Final residual = 7.29312e-06, No Iterations 5
ExecutionTime = 0.778388 s  ClockTime = 1 s

Time = 342s

smoothSolver:  Solving for Ux, Initial residual = 5.8306e-05, Final residual = 9.21868e-06, No Iterations 4
smoothSolver:  Solving for Uy, Initial residual = 0.0239103, Final residual = 0.00184323, No Iterations 3
Pressure gradient source: uncorrected Ubar = 1, pressure gradient = 0.0036628
GAMG:  Solving for p, Initial residual = 0.00464727, Final residual = 0.000444057, No Iterations 9
time step continuity errors : sum local = 1.20788e-08, global = -1.0242e-18, cumulative = -7.94001e-17
Pressure gradient source: uncorrected Ubar = 1, pressure gradient = 0.00365729
smoothSolver:  Solving for omega, Initial residual = 7.51982e-06, Final residual = 7.51982e-06, No Iterations 0
smoothSolver:  Solving for k, Initial residual = 6.71229e-05, Final residual = 6.87414e-06, No Iterations 5
ExecutionTime = 0.780795 s  ClockTime = 1 s

Time = 343s

smoothSolver:  Solving for Ux, Initial residual = 5.76097e-05, Final residual = 9.10121e-06, No Iterations 4
smoothSolver:  Solving for Uy, Initial residual = 0.0247447, Final residual = 0.00175131, No Iterations 3
Pressure gradient source: uncorrected Ubar = 1, pressure gradient = 0.00366298
GAMG:  Solving for p, Initial residual = 0.00412255, Final residual = 0.000356041, No Iterations 11
time step continuity errors : sum local = 9.16047e-09, global = -9.1244e-18, cumulative = -8.85245e-17
Pressure gradient source: uncorrected Ubar = 1, pressure gradient = 0.00365752
smoothSolver:  Solving for omega, Initial residual = 7.61587e-06, Final residual = 7.61587e-06, No Iterations 0
smoothSolver:  Solving for k, Initial residual = 6.26796e-05, Final residual = 9.61273e-06, No Iterations 4
ExecutionTime = 0.78311 s  ClockTime = 1 s

Time = 344s

smoothSolver:  Solving for Ux, Initial residual = 5.68471e-05, Final residual = 8.98205e-06, No Iterations 4
smoothSolver:  Solving for Uy, Initial residual = 0.0172706, Final residual = 0.00108971, No Iterations 3
Pressure gradient source: uncorrected Ubar = 1, pressure gradient = 0.00366319
GAMG:  Solving for p, Initial residual = 0.00437265, Final residual = 0.000285614, No Iterations 11
time step continuity errors : sum local = 8.2532e-09, global = -5.59013e-18, cumulative = -9.41146e-17
Pressure gradient source: uncorrected Ubar = 1, pressure gradient = 0.00365776
smoothSolver:  Solving for omega, Initial residual = 7.71009e-06, Final residual = 7.71009e-06, No Iterations 0
smoothSolver:  Solving for k, Initial residual = 5.84389e-05, Final residual = 7.73198e-06, No Iterations 4
ExecutionTime = 0.785337 s  ClockTime = 1 s

Time = 345s

smoothSolver:  Solving for Ux, Initial residual = 5.60696e-05, Final residual = 8.85848e-06, No Iterations 4
smoothSolver:  Solving for Uy, Initial residual = 0.0128568, Final residual = 0.000997842, No Iterations 3
Pressure gradient source: uncorrected Ubar = 1, pressure gradient = 0.00366334
GAMG:  Solving for p, Initial residual = 0.00328118, Final residual = 0.000255544, No Iterations 12
time step continuity errors : sum local = 7.43476e-09, global = 7.0136e-18, cumulative = -8.7101e-17
Pressure gradient source: uncorrected Ubar = 1, pressure gradient = 0.00365799
smoothSolver:  Solving for omega, Initial residual = 7.8017e-06, Final residual = 7.8017e-06, No Iterations 0
smoothSolver:  Solving for k, Initial residual = 5.70057e-05, Final residual = 8.85446e-06, No Iterations 4
ExecutionTime = 0.787659 s  ClockTime = 1 s

Time = 346s

smoothSolver:  Solving for Ux, Initial residual = 5.52628e-05, Final residual = 8.72997e-06, No Iterations 4
smoothSolver:  Solving for Uy, Initial residual = 0.0133904, Final residual = 0.00119728, No Iterations 3
Pressure gradient source: uncorrected Ubar = 1, pressure gradient = 0.00366354
GAMG:  Solving for p, Initial residual = 0.00329805, Final residual = 0.000254708, No Iterations 12
time step continuity errors : sum local = 6.85572e-09, global = -6.54093e-18, cumulative = -9.36419e-17
Pressure gradient source: uncorrected Ubar = 1, pressure gradient = 0.00365822
smoothSolver:  Solving for omega, Initial residual = 7.89114e-06, Final residual = 7.89114e-06, No Iterations 0
smoothSolver:  Solving for k, Initial residual = 5.47647e-05, Final residual = 8.9731e-06, No Iterations 4
ExecutionTime = 0.790011 s  ClockTime = 1 s

Time = 347s

smoothSolver:  Solving for Ux, Initial residual = 5.44257e-05, Final residual = 8.59712e-06, No Iterations 4
smoothSolver:  Solving for Uy, Initial residual = 0.0131406, Final residual = 0.00105905, No Iterations 3
Pressure gradient source: uncorrected Ubar = 1, pressure gradient = 0.00366364
GAMG:  Solving for p, Initial residual = 0.00284133, Final residual = 0.000247037, No Iterations 14
time step continuity errors : sum local = 7.24389e-09, global = -5.68533e-19, cumulative = -9.42104e-17
Pressure gradient source: uncorrected Ubar = 1, pressure gradient = 0.00365844
smoothSolver:  Solving for omega, Initial residual = 7.97936e-06, Final residual = 7.97936e-06, No Iterations 0
smoothSolver:  Solving for k, Initial residual = 5.22818e-05, Final residual = 7.8848e-06, No Iterations 4
ExecutionTime = 0.792507 s  ClockTime = 1 s

Time = 348s

smoothSolver:  Solving for Ux, Initial residual = 5.35815e-05, Final residual = 8.46196e-06, No Iterations 4
smoothSolver:  Solving for Uy, Initial residual = 0.0124582, Final residual = 0.000887959, No Iterations 3
Pressure gradient source: uncorrected Ubar = 1, pressure gradient = 0.0036637
GAMG:  Solving for p, Initial residual = 0.00256949, Final residual = 0.000238214, No Iterations 12
time step continuity errors : sum local = 6.76371e-09, global = 5.96586e-19, cumulative = -9.36139e-17
Pressure gradient source: uncorrected Ubar = 1, pressure gradient = 0.00365865
smoothSolver:  Solving for omega, Initial residual = 8.06555e-06, Final residual = 8.06555e-06, No Iterations 0
smoothSolver:  Solving for k, Initial residual = 5.09724e-05, Final residual = 7.72754e-06, No Iterations 4
ExecutionTime = 0.794847 s  ClockTime = 1 s

Time = 349s

smoothSolver:  Solving for Ux, Initial residual = 5.27294e-05, Final residual = 8.32589e-06, No Iterations 4
smoothSolver:  Solving for Uy, Initial residual = 0.0132158, Final residual = 0.00100597, No Iterations 3
Pressure gradient source: uncorrected Ubar = 1, pressure gradient = 0.00366383
GAMG:  Solving for p, Initial residual = 0.00239373, Final residual = 0.000227849, No Iterations 12
time step continuity errors : sum local = 5.45646e-09, global = 7.34029e-18, cumulative = -8.62736e-17
Pressure gradient source: uncorrected Ubar = 1, pressure gradient = 0.00365885
smoothSolver:  Solving for omega, Initial residual = 8.14979e-06, Final residual = 8.14979e-06, No Iterations 0
smoothSolver:  Solving for k, Initial residual = 4.86654e-05, Final residual = 6.75486e-06, No Iterations 4
ExecutionTime = 0.797115 s  ClockTime = 1 s

Time = 350s

smoothSolver:  Solving for Ux, Initial residual = 5.18608e-05, Final residual = 8.18652e-06, No Iterations 4
smoothSolver:  Solving for Uy, Initial residual = 0.00876241, Final residual = 0.000755401, No Iterations 3
Pressure gradient source: uncorrected Ubar = 1, pressure gradient = 0.00366391
GAMG:  Solving for p, Initial residual = 0.00209692, Final residual = 0.000185432, No Iterations 14
time step continuity errors : sum local = 4.90859e-09, global = -3.46579e-18, cumulative = -8.97394e-17
Pressure gradient source: uncorrected Ubar = 1, pressure gradient = 0.00365905
smoothSolver:  Solving for omega, Initial residual = 8.23322e-06, Final residual = 8.23322e-06, No Iterations 0
smoothSolver:  Solving for k, Initial residual = 4.76716e-05, Final residual = 6.35864e-06, No Iterations 4
ExecutionTime = 0.799448 s  ClockTime = 1 s


SIMPLE solution converged in 350 iterations

End

