/*---------------------------------------------------------------------------*\
  =========                 |
  \\      /  F ield         | OpenFOAM: The Open Source CFD Toolbox
   \\    /   O peration     | Website:  https://openfoam.org
    \\  /    A nd           | Version:  10
     \\/     M anipulation  |
\*---------------------------------------------------------------------------*/
Build  : 10-e450dce21ea5
Exec   : blockMesh
Date   : Jan 16 2023
Time   : 11:41:56
Host   : "w530-R9YK46P"
PID    : 13690
I/O    : uncollated
Case   : /home/jdmezazeron/gitDanielMezaZ/turbulenceVisualized/Data/SimulationFiles/E0_Re100
nProcs : 1
sigFpe : Enabling floating point exception trapping (FOAM_SIGFPE).
fileModificationChecking : Monitoring run-time modified files using timeStampMaster (fileModificationSkew 10)
allowSystemOperations : Allowing user-supplied system call operations

// * * * * * * * * * * * * * * * * * * * * * * * * * * * * * * * * * * * * * //
Create time

Reading "blockMeshDict"

Creating block mesh from
    "system/blockMeshDict"
Creating block edges
No non-planar block faces defined
Creating topology blocks
Creating topology patches

Creating block mesh topology

Check topology

	Basic statistics
		Number of internal faces : 0
		Number of boundary faces : 6
		Number of defined boundary faces : 6
		Number of undefined boundary faces : 0
	Checking patch -> block consistency

Creating block offsets
Creating merge list .

Creating polyMesh from blockMesh
Creating patches
Creating cells
Creating points with scale 1
    Block 0 cell size :
        i : 0.5
        j : 0.00921276 .. 0.036851
        k : 2

Detected cyclic patches; ordering boundary faces

Writing polyMesh
----------------
Mesh Information
----------------
  boundingBox: (-1 0 -1) (1 1 1)
  nPoints: 510
  nCells: 200
  nFaces: 854
  nInternalFaces: 346
----------------
Patches
----------------
  patch 0 (start: 346 size: 50) name: inlet
  patch 1 (start: 396 size: 50) name: outlet
  patch 2 (start: 446 size: 4) name: fixedWalls-bottom
  patch 3 (start: 450 size: 4) name: fixedWalls-top
  patch 4 (start: 454 size: 400) name: frontAndBack

End

/*---------------------------------------------------------------------------*\
  =========                 |
  \\      /  F ield         | OpenFOAM: The Open Source CFD Toolbox
   \\    /   O peration     | Website:  https://openfoam.org
    \\  /    A nd           | Version:  10
     \\/     M anipulation  |
\*---------------------------------------------------------------------------*/
Build  : 10-e450dce21ea5
Exec   : simpleFoam
Date   : Jan 16 2023
Time   : 11:41:56
Host   : "w530-R9YK46P"
PID    : 13691
I/O    : uncollated
Case   : /home/jdmezazeron/gitDanielMezaZ/turbulenceVisualized/Data/SimulationFiles/E0_Re100
nProcs : 1
sigFpe : Enabling floating point exception trapping (FOAM_SIGFPE).
fileModificationChecking : Monitoring run-time modified files using timeStampMaster (fileModificationSkew 10)
allowSystemOperations : Allowing user-supplied system call operations

// * * * * * * * * * * * * * * * * * * * * * * * * * * * * * * * * * * * * * //
Create time

Create mesh for time = 0


SIMPLE: Convergence criteria found
        U: tolerance 0.01
        p: tolerance 0.01
        omega: tolerance 0.0001

Reading field p

Reading field U

Reading/calculating face flux field phi

Selecting viscosity model Newtonian
Selecting turbulence model type RAS
Selecting RAS turbulence model kOmegaSST
Selecting patchDistMethod meshWave
RAS
{
    RASModel        kOmegaSST;
    turbulence      on;
    printCoeffs     on;
    alphaK1         0.85;
    alphaK2         1;
    alphaOmega1     0.5;
    alphaOmega2     0.856;
    gamma1          0.555556;
    gamma2          0.44;
    beta1           0.075;
    beta2           0.0828;
    betaStar        0.09;
    a1              0.31;
    b1              1;
    c1              10;
    F3              false;
}

No MRF models present

--> FOAM Warning : Creating fvModels from "system/fvOptions" rather than constant/fvModels
No fvModels present
--> FOAM Warning : Creating fvConstraints from "system/fvOptions"

Selecting finite volume constraint type meanVelocityForce
    Name: momentumSource
    - selecting all cells
    - selected 200 cell(s) with volume 4
    Initial pressure gradient = 0


Starting time loop

turbulenceFields stressComponents: storing fields:
    R

Time = 1s

smoothSolver:  Solving for Ux, Initial residual = 0, Final residual = 0, No Iterations 0
smoothSolver:  Solving for Uy, Initial residual = 0, Final residual = 0, No Iterations 0
Pressure gradient source: uncorrected Ubar = 0, pressure gradient = 77.1227
GAMG:  Solving for p, Initial residual = 0.999989, Final residual = 0.0382716, No Iterations 3
time step continuity errors : sum local = 6.26563e-17, global = -1.42703e-17, cumulative = -1.42703e-17
Pressure gradient source: uncorrected Ubar = 0.86936, pressure gradient = 10.0753
smoothSolver:  Solving for omega, Initial residual = 0.017675, Final residual = 0.00166404, No Iterations 2
smoothSolver:  Solving for k, Initial residual = 1, Final residual = 0.0261311, No Iterations 1
ExecutionTime = 0.013472 s  ClockTime = 0 s

Time = 2s

smoothSolver:  Solving for Ux, Initial residual = 0.391117, Final residual = 0.0313324, No Iterations 6
smoothSolver:  Solving for Uy, Initial residual = 1, Final residual = 0.076361, No Iterations 2
Pressure gradient source: uncorrected Ubar = 1.95411, pressure gradient = -67.6295
GAMG:  Solving for p, Initial residual = 1, Final residual = 0.0790941, No Iterations 6
time step continuity errors : sum local = 0.000466281, global = -1.03677e-18, cumulative = -1.5307e-17
Pressure gradient source: uncorrected Ubar = 1.1317, pressure gradient = -0.650997
smoothSolver:  Solving for omega, Initial residual = 0.181609, Final residual = 0.000635299, No Iterations 1
smoothSolver:  Solving for k, Initial residual = 0.100991, Final residual = 0.00553294, No Iterations 3
ExecutionTime = 0.015754 s  ClockTime = 0 s

Time = 3s

smoothSolver:  Solving for Ux, Initial residual = 0.0522466, Final residual = 0.00511775, No Iterations 5
smoothSolver:  Solving for Uy, Initial residual = 0.292178, Final residual = 0.0220714, No Iterations 5
Pressure gradient source: uncorrected Ubar = 0.914449, pressure gradient = 6.36945
GAMG:  Solving for p, Initial residual = 0.213783, Final residual = 0.0115735, No Iterations 7
time step continuity errors : sum local = 0.00013184, global = 1.28153e-17, cumulative = -2.49174e-18
Pressure gradient source: uncorrected Ubar = 0.987594, pressure gradient = 0.367026
smoothSolver:  Solving for omega, Initial residual = 0.00897765, Final residual = 0.000160842, No Iterations 1
smoothSolver:  Solving for k, Initial residual = 0.0371426, Final residual = 0.00251248, No Iterations 4
ExecutionTime = 0.017915 s  ClockTime = 0 s

Time = 4s

smoothSolver:  Solving for Ux, Initial residual = 0.0232931, Final residual = 0.00156981, No Iterations 5
smoothSolver:  Solving for Uy, Initial residual = 0.13041, Final residual = 0.0104938, No Iterations 4
Pressure gradient source: uncorrected Ubar = 1.01298, pressure gradient = -0.687449
GAMG:  Solving for p, Initial residual = 0.21729, Final residual = 0.0162678, No Iterations 6
time step continuity errors : sum local = 0.000161397, global = 4.52316e-19, cumulative = -2.03943e-18
Pressure gradient source: uncorrected Ubar = 1.00183, pressure gradient = 0.218321
smoothSolver:  Solving for omega, Initial residual = 0.00839334, Final residual = 0.000126787, No Iterations 1
smoothSolver:  Solving for k, Initial residual = 0.0262964, Final residual = 0.00259417, No Iterations 4
ExecutionTime = 0.019977 s  ClockTime = 0 s

Time = 5s

smoothSolver:  Solving for Ux, Initial residual = 0.0161557, Final residual = 0.00105356, No Iterations 5
smoothSolver:  Solving for Uy, Initial residual = 0.32968, Final residual = 0.0259689, No Iterations 5
Pressure gradient source: uncorrected Ubar = 1.00263, pressure gradient = 0.00517786
GAMG:  Solving for p, Initial residual = 0.312409, Final residual = 0.0134353, No Iterations 8
time step continuity errors : sum local = 8.50874e-05, global = -6.21129e-18, cumulative = -8.25072e-18
Pressure gradient source: uncorrected Ubar = 1.00034, pressure gradient = 0.190694
smoothSolver:  Solving for omega, Initial residual = 0.00338919, Final residual = 7.90991e-05, No Iterations 1
smoothSolver:  Solving for k, Initial residual = 0.0220658, Final residual = 0.00139355, No Iterations 5
ExecutionTime = 0.022145 s  ClockTime = 0 s

Time = 6s

smoothSolver:  Solving for Ux, Initial residual = 0.0127469, Final residual = 0.000843456, No Iterations 5
smoothSolver:  Solving for Uy, Initial residual = 0.232946, Final residual = 0.0206253, No Iterations 4
Pressure gradient source: uncorrected Ubar = 1.00255, pressure gradient = -0.0157728
GAMG:  Solving for p, Initial residual = 0.445214, Final residual = 0.0245626, No Iterations 8
time step continuity errors : sum local = 6.76367e-05, global = 5.64675e-18, cumulative = -2.60397e-18
Pressure gradient source: uncorrected Ubar = 1.00033, pressure gradient = 0.163739
smoothSolver:  Solving for omega, Initial residual = 0.00227376, Final residual = 5.04915e-05, No Iterations 1
smoothSolver:  Solving for k, Initial residual = 0.0202913, Final residual = 0.00138491, No Iterations 5
ExecutionTime = 0.024215 s  ClockTime = 0 s

Time = 7s

smoothSolver:  Solving for Ux, Initial residual = 0.0103388, Final residual = 0.000688789, No Iterations 5
smoothSolver:  Solving for Uy, Initial residual = 0.12826, Final residual = 0.00829236, No Iterations 4
Pressure gradient source: uncorrected Ubar = 1.00185, pressure gradient = 0.0138807
GAMG:  Solving for p, Initial residual = 0.276481, Final residual = 0.0193858, No Iterations 8
time step continuity errors : sum local = 4.0135e-05, global = 1.22089e-18, cumulative = -1.38308e-18
Pressure gradient source: uncorrected Ubar = 1.00024, pressure gradient = 0.144651
smoothSolver:  Solving for omega, Initial residual = 0.00114737, Final residual = 2.88307e-05, No Iterations 1
smoothSolver:  Solving for k, Initial residual = 0.0186023, Final residual = 0.00131773, No Iterations 5
ExecutionTime = 0.026395 s  ClockTime = 0 s

Time = 8s

smoothSolver:  Solving for Ux, Initial residual = 0.00858983, Final residual = 0.000576254, No Iterations 5
smoothSolver:  Solving for Uy, Initial residual = 0.113899, Final residual = 0.0100201, No Iterations 4
Pressure gradient source: uncorrected Ubar = 1.00144, pressure gradient = 0.0286315
GAMG:  Solving for p, Initial residual = 0.10644, Final residual = 0.00910216, No Iterations 4
time step continuity errors : sum local = 2.14675e-05, global = 8.4301e-19, cumulative = -5.40072e-19
Pressure gradient source: uncorrected Ubar = 1.00018, pressure gradient = 0.130174
smoothSolver:  Solving for omega, Initial residual = 0.000677922, Final residual = 1.83324e-05, No Iterations 1
smoothSolver:  Solving for k, Initial residual = 0.0174285, Final residual = 0.00130069, No Iterations 5
ExecutionTime = 0.028609 s  ClockTime = 0 s

Time = 9s

smoothSolver:  Solving for Ux, Initial residual = 0.00724432, Final residual = 0.000488651, No Iterations 5
smoothSolver:  Solving for Uy, Initial residual = 0.139659, Final residual = 0.00932561, No Iterations 5
Pressure gradient source: uncorrected Ubar = 1.00114, pressure gradient = 0.0383626
GAMG:  Solving for p, Initial residual = 0.112084, Final residual = 0.010861, No Iterations 4
time step continuity errors : sum local = 2.37496e-05, global = 3.09548e-18, cumulative = 2.55541e-18
Pressure gradient source: uncorrected Ubar = 1.00014, pressure gradient = 0.118948
smoothSolver:  Solving for omega, Initial residual = 0.000367958, Final residual = 1.09037e-05, No Iterations 1
smoothSolver:  Solving for k, Initial residual = 0.0163152, Final residual = 0.00124483, No Iterations 5
ExecutionTime = 0.030991 s  ClockTime = 0 s

Time = 10s

smoothSolver:  Solving for Ux, Initial residual = 0.00617637, Final residual = 0.000419554, No Iterations 5
smoothSolver:  Solving for Uy, Initial residual = 0.156984, Final residual = 0.0108545, No Iterations 5
Pressure gradient source: uncorrected Ubar = 1.00092, pressure gradient = 0.0448036
GAMG:  Solving for p, Initial residual = 0.122075, Final residual = 0.00942173, No Iterations 7
time step continuity errors : sum local = 1.89316e-05, global = -8.98505e-18, cumulative = -6.42964e-18
Pressure gradient source: uncorrected Ubar = 1.00011, pressure gradient = 0.110057
smoothSolver:  Solving for omega, Initial residual = 0.000209532, Final residual = 7.30003e-06, No Iterations 1
smoothSolver:  Solving for k, Initial residual = 0.0153957, Final residual = 0.00119987, No Iterations 5
ExecutionTime = 0.033109 s  ClockTime = 0 s

Time = 11s

smoothSolver:  Solving for Ux, Initial residual = 0.00531324, Final residual = 0.00036375, No Iterations 5
smoothSolver:  Solving for Uy, Initial residual = 0.210211, Final residual = 0.0154408, No Iterations 5
Pressure gradient source: uncorrected Ubar = 1.00076, pressure gradient = 0.0491314
GAMG:  Solving for p, Initial residual = 0.132283, Final residual = 0.00885384, No Iterations 8
time step continuity errors : sum local = 1.27279e-05, global = -1.89309e-18, cumulative = -8.32273e-18
Pressure gradient source: uncorrected Ubar = 1.00009, pressure gradient = 0.102886
smoothSolver:  Solving for omega, Initial residual = 0.000117036, Final residual = 4.76076e-06, No Iterations 1
smoothSolver:  Solving for k, Initial residual = 0.0145463, Final residual = 0.00114249, No Iterations 5
ExecutionTime = 0.035242 s  ClockTime = 0 s

Time = 12s

smoothSolver:  Solving for Ux, Initial residual = 0.00462499, Final residual = 0.000316103, No Iterations 5
smoothSolver:  Solving for Uy, Initial residual = 0.235953, Final residual = 0.0186393, No Iterations 5
Pressure gradient source: uncorrected Ubar = 1.00063, pressure gradient = 0.0521597
GAMG:  Solving for p, Initial residual = 0.164057, Final residual = 0.0162822, No Iterations 6
time step continuity errors : sum local = 1.64809e-05, global = 4.40775e-19, cumulative = -7.88195e-18
Pressure gradient source: uncorrected Ubar = 1.00007, pressure gradient = 0.0970218
smoothSolver:  Solving for omega, Initial residual = 6.64977e-05, Final residual = 3.46729e-06, No Iterations 1
smoothSolver:  Solving for k, Initial residual = 0.0137971, Final residual = 0.00114054, No Iterations 5
ExecutionTime = 0.037238 s  ClockTime = 0 s

Time = 13s

smoothSolver:  Solving for Ux, Initial residual = 0.00403983, Final residual = 0.000276855, No Iterations 5
smoothSolver:  Solving for Uy, Initial residual = 0.202654, Final residual = 0.0145843, No Iterations 5
Pressure gradient source: uncorrected Ubar = 1.00053, pressure gradient = 0.0542563
GAMG:  Solving for p, Initial residual = 0.201677, Final residual = 0.0191395, No Iterations 7
time step continuity errors : sum local = 1.2621e-05, global = -1.43231e-17, cumulative = -2.2205e-17
Pressure gradient source: uncorrected Ubar = 1.00006, pressure gradient = 0.0921618
smoothSolver:  Solving for omega, Initial residual = 3.80093e-05, Final residual = 2.53115e-06, No Iterations 1
smoothSolver:  Solving for k, Initial residual = 0.0131155, Final residual = 0.00109153, No Iterations 5
ExecutionTime = 0.039274 s  ClockTime = 0 s

Time = 14s

smoothSolver:  Solving for Ux, Initial residual = 0.0035493, Final residual = 0.000243587, No Iterations 5
smoothSolver:  Solving for Uy, Initial residual = 0.177124, Final residual = 0.0131605, No Iterations 5
Pressure gradient source: uncorrected Ubar = 1.00045, pressure gradient = 0.0557868
GAMG:  Solving for p, Initial residual = 0.204746, Final residual = 0.0189205, No Iterations 6
time step continuity errors : sum local = 9.48673e-06, global = 8.13612e-18, cumulative = -1.40689e-17
Pressure gradient source: uncorrected Ubar = 1.00005, pressure gradient = 0.0880968
smoothSolver:  Solving for omega, Initial residual = 2.20493e-05, Final residual = 2.00696e-06, No Iterations 1
smoothSolver:  Solving for k, Initial residual = 0.0125002, Final residual = 0.00105735, No Iterations 5
ExecutionTime = 0.041312 s  ClockTime = 0 s

Time = 15s

smoothSolver:  Solving for Ux, Initial residual = 0.00312756, Final residual = 0.000215303, No Iterations 5
smoothSolver:  Solving for Uy, Initial residual = 0.138571, Final residual = 0.0107294, No Iterations 5
Pressure gradient source: uncorrected Ubar = 1.00039, pressure gradient = 0.056884
GAMG:  Solving for p, Initial residual = 0.193307, Final residual = 0.0171087, No Iterations 6
time step continuity errors : sum local = 6.67121e-06, global = 7.73094e-18, cumulative = -6.33799e-18
Pressure gradient source: uncorrected Ubar = 1.00004, pressure gradient = 0.0846648
smoothSolver:  Solving for omega, Initial residual = 1.30996e-05, Final residual = 1.60663e-06, No Iterations 1
smoothSolver:  Solving for k, Initial residual = 0.0119339, Final residual = 0.00101964, No Iterations 5
ExecutionTime = 0.043523 s  ClockTime = 0 s

Time = 16s

smoothSolver:  Solving for Ux, Initial residual = 0.00276815, Final residual = 0.000190561, No Iterations 5
smoothSolver:  Solving for Uy, Initial residual = 0.117553, Final residual = 0.00904952, No Iterations 5
Pressure gradient source: uncorrected Ubar = 1.00033, pressure gradient = 0.0576972
GAMG:  Solving for p, Initial residual = 0.177601, Final residual = 0.0113038, No Iterations 6
time step continuity errors : sum local = 3.26904e-06, global = 9.91367e-18, cumulative = 3.57569e-18
Pressure gradient source: uncorrected Ubar = 1.00004, pressure gradient = 0.0817463
smoothSolver:  Solving for omega, Initial residual = 8.00087e-06, Final residual = 8.00087e-06, No Iterations 0
smoothSolver:  Solving for k, Initial residual = 0.0117395, Final residual = 0.000998639, No Iterations 5
ExecutionTime = 0.046105 s  ClockTime = 0 s

Time = 17s

smoothSolver:  Solving for Ux, Initial residual = 0.00246043, Final residual = 0.00016946, No Iterations 5
smoothSolver:  Solving for Uy, Initial residual = 0.112323, Final residual = 0.00828288, No Iterations 5
Pressure gradient source: uncorrected Ubar = 1.00029, pressure gradient = 0.0582727
GAMG:  Solving for p, Initial residual = 0.171657, Final residual = 0.0125625, No Iterations 4
time step continuity errors : sum local = 2.80193e-06, global = -1.44543e-17, cumulative = -1.08786e-17
Pressure gradient source: uncorrected Ubar = 1.00003, pressure gradient = 0.0792443
smoothSolver:  Solving for omega, Initial residual = 8.00267e-06, Final residual = 8.00267e-06, No Iterations 0
smoothSolver:  Solving for k, Initial residual = 0.0115865, Final residual = 0.000992399, No Iterations 5
ExecutionTime = 0.048196 s  ClockTime = 0 s

Time = 18s

smoothSolver:  Solving for Ux, Initial residual = 0.00219717, Final residual = 0.00015111, No Iterations 5
smoothSolver:  Solving for Uy, Initial residual = 0.10245, Final residual = 0.00773298, No Iterations 5
Pressure gradient source: uncorrected Ubar = 1.00025, pressure gradient = 0.0587283
GAMG:  Solving for p, Initial residual = 0.128677, Final residual = 0.00703295, No Iterations 4
time step continuity errors : sum local = 1.46263e-06, global = -1.37367e-17, cumulative = -2.46154e-17
Pressure gradient source: uncorrected Ubar = 1.00003, pressure gradient = 0.0770911
smoothSolver:  Solving for omega, Initial residual = 8.00424e-06, Final residual = 8.00424e-06, No Iterations 0
smoothSolver:  Solving for k, Initial residual = 0.011455, Final residual = 0.000973523, No Iterations 5
ExecutionTime = 0.050183 s  ClockTime = 0 s

Time = 19s

smoothSolver:  Solving for Ux, Initial residual = 0.00196437, Final residual = 0.000135762, No Iterations 5
smoothSolver:  Solving for Uy, Initial residual = 0.0972248, Final residual = 0.00784881, No Iterations 5
Pressure gradient source: uncorrected Ubar = 1.00022, pressure gradient = 0.0590664
GAMG:  Solving for p, Initial residual = 0.0847572, Final residual = 0.00531393, No Iterations 4
time step continuity errors : sum local = 1.09636e-06, global = 1.13104e-18, cumulative = -2.34843e-17
Pressure gradient source: uncorrected Ubar = 1.00002, pressure gradient = 0.0752282
smoothSolver:  Solving for omega, Initial residual = 8.00548e-06, Final residual = 8.00548e-06, No Iterations 0
smoothSolver:  Solving for k, Initial residual = 0.0113362, Final residual = 0.000963534, No Iterations 5
ExecutionTime = 0.052133 s  ClockTime = 0 s

Time = 20s

smoothSolver:  Solving for Ux, Initial residual = 0.0017656, Final residual = 0.00012224, No Iterations 5
smoothSolver:  Solving for Uy, Initial residual = 0.0929723, Final residual = 0.00795609, No Iterations 5
Pressure gradient source: uncorrected Ubar = 1.0002, pressure gradient = 0.0593249
GAMG:  Solving for p, Initial residual = 0.0583247, Final residual = 0.0035953, No Iterations 5
time step continuity errors : sum local = 7.60285e-07, global = 6.54018e-18, cumulative = -1.69441e-17
Pressure gradient source: uncorrected Ubar = 1.00002, pressure gradient = 0.0736095
smoothSolver:  Solving for omega, Initial residual = 8.00636e-06, Final residual = 8.00636e-06, No Iterations 0
smoothSolver:  Solving for k, Initial residual = 0.0112321, Final residual = 0.000996844, No Iterations 5
ExecutionTime = 0.054104 s  ClockTime = 0 s

Time = 21s

smoothSolver:  Solving for Ux, Initial residual = 0.00158863, Final residual = 0.000110852, No Iterations 5
smoothSolver:  Solving for Uy, Initial residual = 0.0881171, Final residual = 0.00762796, No Iterations 5
Pressure gradient source: uncorrected Ubar = 1.00018, pressure gradient = 0.0595168
GAMG:  Solving for p, Initial residual = 0.046807, Final residual = 0.00431679, No Iterations 4
time step continuity errors : sum local = 8.41602e-07, global = 5.72697e-18, cumulative = -1.12172e-17
Pressure gradient source: uncorrected Ubar = 1.00002, pressure gradient = 0.0721967
smoothSolver:  Solving for omega, Initial residual = 8.00752e-06, Final residual = 8.00752e-06, No Iterations 0
smoothSolver:  Solving for k, Initial residual = 0.0111434, Final residual = 0.00095059, No Iterations 5
ExecutionTime = 0.056038 s  ClockTime = 0 s

Time = 22s

smoothSolver:  Solving for Ux, Initial residual = 0.00143811, Final residual = 0.000100732, No Iterations 5
smoothSolver:  Solving for Uy, Initial residual = 0.0879948, Final residual = 0.00762763, No Iterations 5
Pressure gradient source: uncorrected Ubar = 1.00016, pressure gradient = 0.0596681
GAMG:  Solving for p, Initial residual = 0.0436551, Final residual = 0.00371582, No Iterations 3
time step continuity errors : sum local = 7.07866e-07, global = -5.72404e-18, cumulative = -1.69412e-17
Pressure gradient source: uncorrected Ubar = 1.00002, pressure gradient = 0.0709601
smoothSolver:  Solving for omega, Initial residual = 8.00834e-06, Final residual = 8.00834e-06, No Iterations 0
smoothSolver:  Solving for k, Initial residual = 0.0110595, Final residual = 0.000949205, No Iterations 5
ExecutionTime = 0.057935 s  ClockTime = 0 s

Time = 23s

smoothSolver:  Solving for Ux, Initial residual = 0.00130645, Final residual = 9.21516e-05, No Iterations 5
smoothSolver:  Solving for Uy, Initial residual = 0.0860033, Final residual = 0.00722106, No Iterations 5
Pressure gradient source: uncorrected Ubar = 1.00014, pressure gradient = 0.0597797
GAMG:  Solving for p, Initial residual = 0.0436207, Final residual = 0.00267709, No Iterations 5
time step continuity errors : sum local = 4.88354e-07, global = 5.16985e-18, cumulative = -1.17714e-17
Pressure gradient source: uncorrected Ubar = 1.00001, pressure gradient = 0.0698735
smoothSolver:  Solving for omega, Initial residual = 8.00897e-06, Final residual = 8.00897e-06, No Iterations 0
smoothSolver:  Solving for k, Initial residual = 0.010983, Final residual = 0.000967733, No Iterations 5
ExecutionTime = 0.060093 s  ClockTime = 0 s

Time = 24s

smoothSolver:  Solving for Ux, Initial residual = 0.00119317, Final residual = 8.43443e-05, No Iterations 5
smoothSolver:  Solving for Uy, Initial residual = 0.0865875, Final residual = 0.00728369, No Iterations 5
Pressure gradient source: uncorrected Ubar = 1.00012, pressure gradient = 0.0598641
GAMG:  Solving for p, Initial residual = 0.0503689, Final residual = 0.00432503, No Iterations 5
time step continuity errors : sum local = 7.2704e-07, global = -1.14822e-17, cumulative = -2.32535e-17
Pressure gradient source: uncorrected Ubar = 1.00001, pressure gradient = 0.0689158
smoothSolver:  Solving for omega, Initial residual = 8.00957e-06, Final residual = 8.00957e-06, No Iterations 0
smoothSolver:  Solving for k, Initial residual = 0.0109206, Final residual = 0.000972494, No Iterations 5
ExecutionTime = 0.062597 s  ClockTime = 0 s

Time = 25s

smoothSolver:  Solving for Ux, Initial residual = 0.0010927, Final residual = 7.76286e-05, No Iterations 5
smoothSolver:  Solving for Uy, Initial residual = 0.085517, Final residual = 0.00708634, No Iterations 5
Pressure gradient source: uncorrected Ubar = 1.00011, pressure gradient = 0.0599298
GAMG:  Solving for p, Initial residual = 0.0554409, Final residual = 0.004146, No Iterations 6
time step continuity errors : sum local = 5.7085e-07, global = -8.06712e-18, cumulative = -3.13207e-17
Pressure gradient source: uncorrected Ubar = 1.00001, pressure gradient = 0.0680695
smoothSolver:  Solving for omega, Initial residual = 8.00994e-06, Final residual = 8.00994e-06, No Iterations 0
smoothSolver:  Solving for k, Initial residual = 0.0108562, Final residual = 0.000942722, No Iterations 5
ExecutionTime = 0.064839 s  ClockTime = 0 s

Time = 26s

smoothSolver:  Solving for Ux, Initial residual = 0.00100586, Final residual = 7.14709e-05, No Iterations 5
smoothSolver:  Solving for Uy, Initial residual = 0.0840931, Final residual = 0.00697047, No Iterations 5
Pressure gradient source: uncorrected Ubar = 1.0001, pressure gradient = 0.0599783
GAMG:  Solving for p, Initial residual = 0.0582646, Final residual = 0.0053418, No Iterations 6
time step continuity errors : sum local = 6.4981e-07, global = 5.04998e-18, cumulative = -2.62707e-17
Pressure gradient source: uncorrected Ubar = 1.00001, pressure gradient = 0.0673196
smoothSolver:  Solving for omega, Initial residual = 8.01037e-06, Final residual = 8.01037e-06, No Iterations 0
smoothSolver:  Solving for k, Initial residual = 0.0107996, Final residual = 0.000947112, No Iterations 5
ExecutionTime = 0.066979 s  ClockTime = 0 s

Time = 27s

smoothSolver:  Solving for Ux, Initial residual = 0.000926126, Final residual = 6.60034e-05, No Iterations 5
smoothSolver:  Solving for Uy, Initial residual = 0.0801342, Final residual = 0.00674784, No Iterations 5
Pressure gradient source: uncorrected Ubar = 1.00009, pressure gradient = 0.0600152
GAMG:  Solving for p, Initial residual = 0.0579101, Final residual = 0.00454295, No Iterations 6
time step continuity errors : sum local = 4.98471e-07, global = 3.50626e-18, cumulative = -2.27644e-17
Pressure gradient source: uncorrected Ubar = 1.00001, pressure gradient = 0.0666535
smoothSolver:  Solving for omega, Initial residual = 8.01075e-06, Final residual = 8.01075e-06, No Iterations 0
smoothSolver:  Solving for k, Initial residual = 0.0107516, Final residual = 0.000950902, No Iterations 5
ExecutionTime = 0.068969 s  ClockTime = 0 s

Time = 28s

smoothSolver:  Solving for Ux, Initial residual = 0.000855605, Final residual = 6.10226e-05, No Iterations 5
smoothSolver:  Solving for Uy, Initial residual = 0.0770202, Final residual = 0.00657124, No Iterations 5
Pressure gradient source: uncorrected Ubar = 1.00008, pressure gradient = 0.0600428
GAMG:  Solving for p, Initial residual = 0.0555459, Final residual = 0.00432143, No Iterations 6
time step continuity errors : sum local = 4.13313e-07, global = 1.12053e-17, cumulative = -1.15591e-17
Pressure gradient source: uncorrected Ubar = 1.00001, pressure gradient = 0.0660604
smoothSolver:  Solving for omega, Initial residual = 8.01106e-06, Final residual = 8.01106e-06, No Iterations 0
smoothSolver:  Solving for k, Initial residual = 0.0107023, Final residual = 0.000929018, No Iterations 5
ExecutionTime = 0.070988 s  ClockTime = 0 s

Time = 29s

smoothSolver:  Solving for Ux, Initial residual = 0.00079177, Final residual = 5.64995e-05, No Iterations 5
smoothSolver:  Solving for Uy, Initial residual = 0.0751826, Final residual = 0.00649665, No Iterations 5
Pressure gradient source: uncorrected Ubar = 1.00007, pressure gradient = 0.0600628
GAMG:  Solving for p, Initial residual = 0.0525145, Final residual = 0.0039604, No Iterations 6
time step continuity errors : sum local = 3.35389e-07, global = -2.44261e-18, cumulative = -1.40017e-17
Pressure gradient source: uncorrected Ubar = 1.00001, pressure gradient = 0.0655312
smoothSolver:  Solving for omega, Initial residual = 8.01133e-06, Final residual = 8.01133e-06, No Iterations 0
smoothSolver:  Solving for k, Initial residual = 0.0106565, Final residual = 0.00095729, No Iterations 5
ExecutionTime = 0.072987 s  ClockTime = 0 s

Time = 30s

smoothSolver:  Solving for Ux, Initial residual = 0.000735135, Final residual = 5.24688e-05, No Iterations 5
smoothSolver:  Solving for Uy, Initial residual = 0.0739017, Final residual = 0.00645015, No Iterations 5
Pressure gradient source: uncorrected Ubar = 1.00007, pressure gradient = 0.0600767
GAMG:  Solving for p, Initial residual = 0.0500372, Final residual = 0.00358108, No Iterations 6
time step continuity errors : sum local = 2.70604e-07, global = -5.62526e-18, cumulative = -1.9627e-17
Pressure gradient source: uncorrected Ubar = 1.00001, pressure gradient = 0.0650579
smoothSolver:  Solving for omega, Initial residual = 8.01158e-06, Final residual = 8.01158e-06, No Iterations 0
smoothSolver:  Solving for k, Initial residual = 0.0106187, Final residual = 0.000952254, No Iterations 5
ExecutionTime = 0.075001 s  ClockTime = 0 s

Time = 31s

smoothSolver:  Solving for Ux, Initial residual = 0.00068339, Final residual = 4.8841e-05, No Iterations 5
smoothSolver:  Solving for Uy, Initial residual = 0.0732333, Final residual = 0.00643246, No Iterations 5
Pressure gradient source: uncorrected Ubar = 1.00006, pressure gradient = 0.0600868
GAMG:  Solving for p, Initial residual = 0.0477132, Final residual = 0.00303623, No Iterations 6
time step continuity errors : sum local = 2.06495e-07, global = -7.65303e-18, cumulative = -2.728e-17
Pressure gradient source: uncorrected Ubar = 1.00001, pressure gradient = 0.0646337
smoothSolver:  Solving for omega, Initial residual = 8.0118e-06, Final residual = 8.0118e-06, No Iterations 0
smoothSolver:  Solving for k, Initial residual = 0.0105815, Final residual = 0.000936808, No Iterations 5
ExecutionTime = 0.077156 s  ClockTime = 0 s

Time = 32s

smoothSolver:  Solving for Ux, Initial residual = 0.000636189, Final residual = 4.56339e-05, No Iterations 5
smoothSolver:  Solving for Uy, Initial residual = 0.0730882, Final residual = 0.0064069, No Iterations 5
Pressure gradient source: uncorrected Ubar = 1.00006, pressure gradient = 0.0600935
GAMG:  Solving for p, Initial residual = 0.0459839, Final residual = 0.00257891, No Iterations 6
time step continuity errors : sum local = 1.58616e-07, global = -3.79826e-18, cumulative = -3.10783e-17
Pressure gradient source: uncorrected Ubar = 1, pressure gradient = 0.0642529
smoothSolver:  Solving for omega, Initial residual = 8.012e-06, Final residual = 8.012e-06, No Iterations 0
smoothSolver:  Solving for k, Initial residual = 0.0105457, Final residual = 0.000936312, No Iterations 5
ExecutionTime = 0.079766 s  ClockTime = 0 s

Time = 33s

smoothSolver:  Solving for Ux, Initial residual = 0.000593708, Final residual = 4.27358e-05, No Iterations 5
smoothSolver:  Solving for Uy, Initial residual = 0.0726688, Final residual = 0.00633992, No Iterations 5
Pressure gradient source: uncorrected Ubar = 1.00005, pressure gradient = 0.0600973
GAMG:  Solving for p, Initial residual = 0.0447537, Final residual = 0.00435101, No Iterations 5
time step continuity errors : sum local = 2.38528e-07, global = 1.71915e-18, cumulative = -2.93591e-17
Pressure gradient source: uncorrected Ubar = 1, pressure gradient = 0.0639103
smoothSolver:  Solving for omega, Initial residual = 8.01218e-06, Final residual = 8.01218e-06, No Iterations 0
smoothSolver:  Solving for k, Initial residual = 0.0105148, Final residual = 0.000953838, No Iterations 5
ExecutionTime = 0.081837 s  ClockTime = 0 s

Time = 34s

smoothSolver:  Solving for Ux, Initial residual = 0.000554638, Final residual = 4.00728e-05, No Iterations 5
smoothSolver:  Solving for Uy, Initial residual = 0.0719298, Final residual = 0.00625445, No Iterations 5
Pressure gradient source: uncorrected Ubar = 1.00005, pressure gradient = 0.0600991
GAMG:  Solving for p, Initial residual = 0.0440951, Final residual = 0.00420092, No Iterations 4
time step continuity errors : sum local = 2.05874e-07, global = 4.59339e-18, cumulative = -2.47657e-17
Pressure gradient source: uncorrected Ubar = 1, pressure gradient = 0.0636014
smoothSolver:  Solving for omega, Initial residual = 8.01234e-06, Final residual = 8.01234e-06, No Iterations 0
smoothSolver:  Solving for k, Initial residual = 0.0104842, Final residual = 0.000935791, No Iterations 5
ExecutionTime = 0.083869 s  ClockTime = 0 s

Time = 35s

smoothSolver:  Solving for Ux, Initial residual = 0.000519119, Final residual = 3.76766e-05, No Iterations 5
smoothSolver:  Solving for Uy, Initial residual = 0.070987, Final residual = 0.006167, No Iterations 5
Pressure gradient source: uncorrected Ubar = 1.00004, pressure gradient = 0.0600994
GAMG:  Solving for p, Initial residual = 0.0438919, Final residual = 0.00413787, No Iterations 4
time step continuity errors : sum local = 1.83084e-07, global = -5.74667e-18, cumulative = -3.05124e-17
Pressure gradient source: uncorrected Ubar = 1, pressure gradient = 0.0633226
smoothSolver:  Solving for omega, Initial residual = 8.01248e-06, Final residual = 8.01248e-06, No Iterations 0
smoothSolver:  Solving for k, Initial residual = 0.0104579, Final residual = 0.000930833, No Iterations 5
ExecutionTime = 0.085846 s  ClockTime = 0 s

Time = 36s

smoothSolver:  Solving for Ux, Initial residual = 0.000487619, Final residual = 3.55191e-05, No Iterations 5
smoothSolver:  Solving for Uy, Initial residual = 0.0692645, Final residual = 0.00597899, No Iterations 5
Pressure gradient source: uncorrected Ubar = 1.00004, pressure gradient = 0.0600985
GAMG:  Solving for p, Initial residual = 0.0440467, Final residual = 0.0039417, No Iterations 4
time step continuity errors : sum local = 1.57071e-07, global = -4.29678e-18, cumulative = -3.48092e-17
Pressure gradient source: uncorrected Ubar = 1, pressure gradient = 0.0630703
smoothSolver:  Solving for omega, Initial residual = 8.0126e-06, Final residual = 8.0126e-06, No Iterations 0
smoothSolver:  Solving for k, Initial residual = 0.0104264, Final residual = 0.000913737, No Iterations 5
ExecutionTime = 0.088077 s  ClockTime = 0 s

Time = 37s

smoothSolver:  Solving for Ux, Initial residual = 0.000458785, Final residual = 3.35496e-05, No Iterations 5
smoothSolver:  Solving for Uy, Initial residual = 0.0669434, Final residual = 0.00578116, No Iterations 5
Pressure gradient source: uncorrected Ubar = 1.00004, pressure gradient = 0.0600966
GAMG:  Solving for p, Initial residual = 0.0441823, Final residual = 0.00365025, No Iterations 4
time step continuity errors : sum local = 1.3117e-07, global = -6.109e-18, cumulative = -4.09182e-17
Pressure gradient source: uncorrected Ubar = 1, pressure gradient = 0.0628418
smoothSolver:  Solving for omega, Initial residual = 8.01271e-06, Final residual = 8.01271e-06, No Iterations 0
smoothSolver:  Solving for k, Initial residual = 0.0104023, Final residual = 0.00095249, No Iterations 5
ExecutionTime = 0.090087 s  ClockTime = 0 s

Time = 38s

smoothSolver:  Solving for Ux, Initial residual = 0.000432342, Final residual = 3.18024e-05, No Iterations 5
smoothSolver:  Solving for Uy, Initial residual = 0.0646052, Final residual = 0.00558808, No Iterations 5
Pressure gradient source: uncorrected Ubar = 1.00003, pressure gradient = 0.060094
GAMG:  Solving for p, Initial residual = 0.0438648, Final residual = 0.00338617, No Iterations 4
time step continuity errors : sum local = 1.09759e-07, global = -3.55003e-18, cumulative = -4.44682e-17
Pressure gradient source: uncorrected Ubar = 1, pressure gradient = 0.0626342
smoothSolver:  Solving for omega, Initial residual = 8.01281e-06, Final residual = 8.01281e-06, No Iterations 0
smoothSolver:  Solving for k, Initial residual = 0.0103761, Final residual = 0.000918006, No Iterations 5
ExecutionTime = 0.092053 s  ClockTime = 0 s

Time = 39s

smoothSolver:  Solving for Ux, Initial residual = 0.000408406, Final residual = 3.02509e-05, No Iterations 5
smoothSolver:  Solving for Uy, Initial residual = 0.0624991, Final residual = 0.00541715, No Iterations 5
Pressure gradient source: uncorrected Ubar = 1.00003, pressure gradient = 0.060091
GAMG:  Solving for p, Initial residual = 0.0432822, Final residual = 0.00314818, No Iterations 4
time step continuity errors : sum local = 9.19943e-08, global = -1.40008e-17, cumulative = -5.8469e-17
Pressure gradient source: uncorrected Ubar = 1, pressure gradient = 0.0624456
smoothSolver:  Solving for omega, Initial residual = 8.01289e-06, Final residual = 8.01289e-06, No Iterations 0
smoothSolver:  Solving for k, Initial residual = 0.0103544, Final residual = 0.000930527, No Iterations 5
ExecutionTime = 0.094175 s  ClockTime = 0 s

Time = 40s

smoothSolver:  Solving for Ux, Initial residual = 0.000386522, Final residual = 2.88777e-05, No Iterations 5
smoothSolver:  Solving for Uy, Initial residual = 0.0606543, Final residual = 0.00527316, No Iterations 5
Pressure gradient source: uncorrected Ubar = 1.00003, pressure gradient = 0.0600875
GAMG:  Solving for p, Initial residual = 0.0423495, Final residual = 0.00302057, No Iterations 4
time step continuity errors : sum local = 7.94829e-08, global = -1.15195e-18, cumulative = -5.9621e-17
Pressure gradient source: uncorrected Ubar = 1, pressure gradient = 0.0622737
smoothSolver:  Solving for omega, Initial residual = 8.01296e-06, Final residual = 8.01296e-06, No Iterations 0
smoothSolver:  Solving for k, Initial residual = 0.0103297, Final residual = 0.000897158, No Iterations 5
ExecutionTime = 0.096748 s  ClockTime = 0 s

Time = 41s

smoothSolver:  Solving for Ux, Initial residual = 0.000366505, Final residual = 2.76448e-05, No Iterations 5
smoothSolver:  Solving for Uy, Initial residual = 0.0592625, Final residual = 0.00516901, No Iterations 5
Pressure gradient source: uncorrected Ubar = 1.00003, pressure gradient = 0.0600839
GAMG:  Solving for p, Initial residual = 0.0413813, Final residual = 0.00293809, No Iterations 4
time step continuity errors : sum local = 7.10895e-08, global = 6.24238e-18, cumulative = -5.33786e-17
Pressure gradient source: uncorrected Ubar = 1, pressure gradient = 0.062117
smoothSolver:  Solving for omega, Initial residual = 8.01302e-06, Final residual = 8.01302e-06, No Iterations 0
smoothSolver:  Solving for k, Initial residual = 0.0103048, Final residual = 0.000910619, No Iterations 5
ExecutionTime = 0.09879 s  ClockTime = 0 s

Time = 42s

smoothSolver:  Solving for Ux, Initial residual = 0.00034825, Final residual = 2.65429e-05, No Iterations 5
smoothSolver:  Solving for Uy, Initial residual = 0.058171, Final residual = 0.00509424, No Iterations 5
Pressure gradient source: uncorrected Ubar = 1.00003, pressure gradient = 0.0600801
GAMG:  Solving for p, Initial residual = 0.0400422, Final residual = 0.00292078, No Iterations 4
time step continuity errors : sum local = 6.55315e-08, global = 6.65564e-18, cumulative = -4.6723e-17
Pressure gradient source: uncorrected Ubar = 1, pressure gradient = 0.0619737
smoothSolver:  Solving for omega, Initial residual = 8.01308e-06, Final residual = 8.01308e-06, No Iterations 0
smoothSolver:  Solving for k, Initial residual = 0.010288, Final residual = 0.000946524, No Iterations 5
ExecutionTime = 0.100823 s  ClockTime = 0 s

Time = 43s

smoothSolver:  Solving for Ux, Initial residual = 0.000332005, Final residual = 2.55654e-05, No Iterations 5
smoothSolver:  Solving for Uy, Initial residual = 0.0573549, Final residual = 0.00504887, No Iterations 5
Pressure gradient source: uncorrected Ubar = 1.00002, pressure gradient = 0.0600762
GAMG:  Solving for p, Initial residual = 0.0386169, Final residual = 0.00286182, No Iterations 4
time step continuity errors : sum local = 5.94926e-08, global = -4.59368e-18, cumulative = -5.13167e-17
Pressure gradient source: uncorrected Ubar = 1, pressure gradient = 0.0618426
smoothSolver:  Solving for omega, Initial residual = 8.01313e-06, Final residual = 8.01313e-06, No Iterations 0
smoothSolver:  Solving for k, Initial residual = 0.0102669, Final residual = 0.000909493, No Iterations 5
ExecutionTime = 0.102858 s  ClockTime = 0 s

Time = 44s

smoothSolver:  Solving for Ux, Initial residual = 0.000317366, Final residual = 2.47117e-05, No Iterations 5
smoothSolver:  Solving for Uy, Initial residual = 0.0566207, Final residual = 0.00502486, No Iterations 5
Pressure gradient source: uncorrected Ubar = 1.00002, pressure gradient = 0.0600723
GAMG:  Solving for p, Initial residual = 0.0371955, Final residual = 0.00253395, No Iterations 4
time step continuity errors : sum local = 4.8418e-08, global = -1.26549e-17, cumulative = -6.39715e-17
Pressure gradient source: uncorrected Ubar = 1, pressure gradient = 0.0617225
smoothSolver:  Solving for omega, Initial residual = 8.01319e-06, Final residual = 8.01319e-06, No Iterations 0
smoothSolver:  Solving for k, Initial residual = 0.0102521, Final residual = 0.000935661, No Iterations 5
ExecutionTime = 0.104803 s  ClockTime = 0 s

Time = 45s

smoothSolver:  Solving for Ux, Initial residual = 0.000304116, Final residual = 2.39803e-05, No Iterations 5
smoothSolver:  Solving for Uy, Initial residual = 0.0557251, Final residual = 0.00499624, No Iterations 5
Pressure gradient source: uncorrected Ubar = 1.00002, pressure gradient = 0.0600685
GAMG:  Solving for p, Initial residual = 0.035587, Final residual = 0.0034644, No Iterations 3
time step continuity errors : sum local = 6.37704e-08, global = 8.88474e-19, cumulative = -6.3083e-17
Pressure gradient source: uncorrected Ubar = 1, pressure gradient = 0.0616122
smoothSolver:  Solving for omega, Initial residual = 8.01325e-06, Final residual = 8.01325e-06, No Iterations 0
smoothSolver:  Solving for k, Initial residual = 0.0102356, Final residual = 0.000921346, No Iterations 5
ExecutionTime = 0.106726 s  ClockTime = 0 s

Time = 46s

smoothSolver:  Solving for Ux, Initial residual = 0.000292155, Final residual = 2.33817e-05, No Iterations 5
smoothSolver:  Solving for Uy, Initial residual = 0.0558817, Final residual = 0.00503364, No Iterations 5
Pressure gradient source: uncorrected Ubar = 1.00002, pressure gradient = 0.0600647
GAMG:  Solving for p, Initial residual = 0.0333442, Final residual = 0.00232684, No Iterations 4
time step continuity errors : sum local = 3.84239e-08, global = -5.29917e-18, cumulative = -6.83822e-17
Pressure gradient source: uncorrected Ubar = 1, pressure gradient = 0.0615108
smoothSolver:  Solving for omega, Initial residual = 8.01327e-06, Final residual = 8.01327e-06, No Iterations 0
smoothSolver:  Solving for k, Initial residual = 0.0102203, Final residual = 0.00092082, No Iterations 5
ExecutionTime = 0.108728 s  ClockTime = 0 s

Time = 47s

smoothSolver:  Solving for Ux, Initial residual = 0.000281468, Final residual = 2.2902e-05, No Iterations 5
smoothSolver:  Solving for Uy, Initial residual = 0.0543, Final residual = 0.0048897, No Iterations 5
Pressure gradient source: uncorrected Ubar = 1.00002, pressure gradient = 0.0600609
GAMG:  Solving for p, Initial residual = 0.0325162, Final residual = 0.00287355, No Iterations 3
time step continuity errors : sum local = 4.61008e-08, global = 3.33991e-18, cumulative = -6.50423e-17
Pressure gradient source: uncorrected Ubar = 1, pressure gradient = 0.0614175
smoothSolver:  Solving for omega, Initial residual = 8.01332e-06, Final residual = 8.01332e-06, No Iterations 0
smoothSolver:  Solving for k, Initial residual = 0.0101992, Final residual = 0.000885055, No Iterations 5
ExecutionTime = 0.111139 s  ClockTime = 0 s

Time = 48s

smoothSolver:  Solving for Ux, Initial residual = 0.000271978, Final residual = 2.25269e-05, No Iterations 5
smoothSolver:  Solving for Uy, Initial residual = 0.0527677, Final residual = 0.00480498, No Iterations 5
Pressure gradient source: uncorrected Ubar = 1.00002, pressure gradient = 0.0600573
GAMG:  Solving for p, Initial residual = 0.0306618, Final residual = 0.00302826, No Iterations 3
time step continuity errors : sum local = 4.56498e-08, global = -1.65375e-17, cumulative = -8.15798e-17
Pressure gradient source: uncorrected Ubar = 1, pressure gradient = 0.0613315
smoothSolver:  Solving for omega, Initial residual = 8.01334e-06, Final residual = 8.01334e-06, No Iterations 0
smoothSolver:  Solving for k, Initial residual = 0.0101835, Final residual = 0.000893124, No Iterations 5
ExecutionTime = 0.113238 s  ClockTime = 0 s

Time = 49s

smoothSolver:  Solving for Ux, Initial residual = 0.000263686, Final residual = 2.22226e-05, No Iterations 5
smoothSolver:  Solving for Uy, Initial residual = 0.0511123, Final residual = 0.00467547, No Iterations 5
Pressure gradient source: uncorrected Ubar = 1.00002, pressure gradient = 0.0600538
GAMG:  Solving for p, Initial residual = 0.0293375, Final residual = 0.00276805, No Iterations 3
time step continuity errors : sum local = 3.93259e-08, global = 3.29158e-18, cumulative = -7.82882e-17
Pressure gradient source: uncorrected Ubar = 1, pressure gradient = 0.0612521
smoothSolver:  Solving for omega, Initial residual = 8.01336e-06, Final residual = 8.01336e-06, No Iterations 0
smoothSolver:  Solving for k, Initial residual = 0.0101647, Final residual = 0.000900157, No Iterations 5
ExecutionTime = 0.115311 s  ClockTime = 0 s

Time = 50s

smoothSolver:  Solving for Ux, Initial residual = 0.000256446, Final residual = 2.19066e-05, No Iterations 5
smoothSolver:  Solving for Uy, Initial residual = 0.0492492, Final residual = 0.00451039, No Iterations 5
Pressure gradient source: uncorrected Ubar = 1.00001, pressure gradient = 0.0600504
GAMG:  Solving for p, Initial residual = 0.0282067, Final residual = 0.00246075, No Iterations 3
time step continuity errors : sum local = 3.29806e-08, global = -1.06226e-17, cumulative = -8.89109e-17
Pressure gradient source: uncorrected Ubar = 1, pressure gradient = 0.0611786
smoothSolver:  Solving for omega, Initial residual = 8.01337e-06, Final residual = 8.01337e-06, No Iterations 0
smoothSolver:  Solving for k, Initial residual = 0.0101463, Final residual = 0.000876568, No Iterations 5
ExecutionTime = 0.11731 s  ClockTime = 0 s

Time = 51s

smoothSolver:  Solving for Ux, Initial residual = 0.00024981, Final residual = 2.15765e-05, No Iterations 5
smoothSolver:  Solving for Uy, Initial residual = 0.0471833, Final residual = 0.00432101, No Iterations 5
Pressure gradient source: uncorrected Ubar = 1.00001, pressure gradient = 0.0600472
GAMG:  Solving for p, Initial residual = 0.0270716, Final residual = 0.0023549, No Iterations 3
time step continuity errors : sum local = 2.96596e-08, global = -4.03401e-18, cumulative = -9.29449e-17
Pressure gradient source: uncorrected Ubar = 1, pressure gradient = 0.0611107
smoothSolver:  Solving for omega, Initial residual = 8.01339e-06, Final residual = 8.01339e-06, No Iterations 0
smoothSolver:  Solving for k, Initial residual = 0.0101347, Final residual = 0.000915246, No Iterations 5
ExecutionTime = 0.119268 s  ClockTime = 0 s

Time = 52s

smoothSolver:  Solving for Ux, Initial residual = 0.000243423, Final residual = 2.12345e-05, No Iterations 5
smoothSolver:  Solving for Uy, Initial residual = 0.0450561, Final residual = 0.00412518, No Iterations 5
Pressure gradient source: uncorrected Ubar = 1.00001, pressure gradient = 0.0600441
GAMG:  Solving for p, Initial residual = 0.0259687, Final residual = 0.002429, No Iterations 3
time step continuity errors : sum local = 2.87336e-08, global = -3.04124e-19, cumulative = -9.3249e-17
Pressure gradient source: uncorrected Ubar = 1, pressure gradient = 0.0610477
smoothSolver:  Solving for omega, Initial residual = 8.01339e-06, Final residual = 8.01339e-06, No Iterations 0
smoothSolver:  Solving for k, Initial residual = 0.0101156, Final residual = 0.000878356, No Iterations 5
ExecutionTime = 0.121167 s  ClockTime = 0 s

Time = 53s

smoothSolver:  Solving for Ux, Initial residual = 0.000237223, Final residual = 2.08828e-05, No Iterations 5
smoothSolver:  Solving for Uy, Initial residual = 0.0430767, Final residual = 0.00392952, No Iterations 5
Pressure gradient source: uncorrected Ubar = 1.00001, pressure gradient = 0.0600411
GAMG:  Solving for p, Initial residual = 0.0248034, Final residual = 0.000944339, No Iterations 4
time step continuity errors : sum local = 1.12283e-08, global = 2.51818e-18, cumulative = -9.07308e-17
Pressure gradient source: uncorrected Ubar = 1, pressure gradient = 0.0609893
smoothSolver:  Solving for omega, Initial residual = 8.01339e-06, Final residual = 8.01339e-06, No Iterations 0
smoothSolver:  Solving for k, Initial residual = 0.0101036, Final residual = 0.000913827, No Iterations 5
ExecutionTime = 0.123109 s  ClockTime = 0 s

Time = 54s

smoothSolver:  Solving for Ux, Initial residual = 0.000231167, Final residual = 2.05324e-05, No Iterations 5
smoothSolver:  Solving for Uy, Initial residual = 0.0416972, Final residual = 0.00376736, No Iterations 5
Pressure gradient source: uncorrected Ubar = 1.00001, pressure gradient = 0.0600382
GAMG:  Solving for p, Initial residual = 0.0239868, Final residual = 0.00157637, No Iterations 4
time step continuity errors : sum local = 1.69222e-08, global = -1.03637e-17, cumulative = -1.01095e-16
Pressure gradient source: uncorrected Ubar = 1, pressure gradient = 0.0609349
smoothSolver:  Solving for omega, Initial residual = 8.0134e-06, Final residual = 8.0134e-06, No Iterations 0
smoothSolver:  Solving for k, Initial residual = 0.0100903, Final residual = 0.000897858, No Iterations 5
ExecutionTime = 0.125036 s  ClockTime = 0 s

Time = 55s

smoothSolver:  Solving for Ux, Initial residual = 0.000225253, Final residual = 2.01834e-05, No Iterations 5
smoothSolver:  Solving for Uy, Initial residual = 0.039788, Final residual = 0.00360421, No Iterations 5
Pressure gradient source: uncorrected Ubar = 1.00001, pressure gradient = 0.0600355
GAMG:  Solving for p, Initial residual = 0.0232721, Final residual = 0.00148947, No Iterations 4
time step continuity errors : sum local = 1.54908e-08, global = 2.03667e-18, cumulative = -9.90579e-17
Pressure gradient source: uncorrected Ubar = 1, pressure gradient = 0.0608844
smoothSolver:  Solving for omega, Initial residual = 8.0134e-06, Final residual = 8.0134e-06, No Iterations 0
smoothSolver:  Solving for k, Initial residual = 0.0100778, Final residual = 0.000882197, No Iterations 5
ExecutionTime = 0.127107 s  ClockTime = 0 s

Time = 56s

smoothSolver:  Solving for Ux, Initial residual = 0.000219477, Final residual = 1.98328e-05, No Iterations 5
smoothSolver:  Solving for Uy, Initial residual = 0.0381939, Final residual = 0.00340946, No Iterations 5
Pressure gradient source: uncorrected Ubar = 1.00001, pressure gradient = 0.0600329
GAMG:  Solving for p, Initial residual = 0.0224336, Final residual = 0.00146179, No Iterations 4
time step continuity errors : sum local = 1.48123e-08, global = -2.25372e-18, cumulative = -1.01312e-16
Pressure gradient source: uncorrected Ubar = 1, pressure gradient = 0.0608374
smoothSolver:  Solving for omega, Initial residual = 8.0134e-06, Final residual = 8.0134e-06, No Iterations 0
smoothSolver:  Solving for k, Initial residual = 0.0100592, Final residual = 0.00087264, No Iterations 5
ExecutionTime = 0.129258 s  ClockTime = 0 s

Time = 57s

smoothSolver:  Solving for Ux, Initial residual = 0.000213836, Final residual = 1.94762e-05, No Iterations 5
smoothSolver:  Solving for Uy, Initial residual = 0.0363392, Final residual = 0.00320307, No Iterations 5
Pressure gradient source: uncorrected Ubar = 1.00001, pressure gradient = 0.0600305
GAMG:  Solving for p, Initial residual = 0.0217354, Final residual = 0.00149886, No Iterations 4
time step continuity errors : sum local = 1.48911e-08, global = 4.06629e-18, cumulative = -9.72453e-17
Pressure gradient source: uncorrected Ubar = 1, pressure gradient = 0.0607935
smoothSolver:  Solving for omega, Initial residual = 8.0134e-06, Final residual = 8.0134e-06, No Iterations 0
smoothSolver:  Solving for k, Initial residual = 0.0100505, Final residual = 0.000929607, No Iterations 5
ExecutionTime = 0.131359 s  ClockTime = 0 s

Time = 58s

smoothSolver:  Solving for Ux, Initial residual = 0.000208327, Final residual = 1.91151e-05, No Iterations 5
smoothSolver:  Solving for Uy, Initial residual = 0.0344571, Final residual = 0.00299611, No Iterations 5
Pressure gradient source: uncorrected Ubar = 1.00001, pressure gradient = 0.0600281
GAMG:  Solving for p, Initial residual = 0.0210865, Final residual = 0.0015313, No Iterations 4
time step continuity errors : sum local = 1.49043e-08, global = 1.17669e-19, cumulative = -9.71277e-17
Pressure gradient source: uncorrected Ubar = 1, pressure gradient = 0.0607525
smoothSolver:  Solving for omega, Initial residual = 8.0134e-06, Final residual = 8.0134e-06, No Iterations 0
smoothSolver:  Solving for k, Initial residual = 0.0100377, Final residual = 0.000887547, No Iterations 5
ExecutionTime = 0.133401 s  ClockTime = 0 s

Time = 59s

smoothSolver:  Solving for Ux, Initial residual = 0.000203041, Final residual = 1.87506e-05, No Iterations 5
smoothSolver:  Solving for Uy, Initial residual = 0.0326022, Final residual = 0.00279576, No Iterations 5
Pressure gradient source: uncorrected Ubar = 1.00001, pressure gradient = 0.0600259
GAMG:  Solving for p, Initial residual = 0.0205364, Final residual = 0.00139117, No Iterations 4
time step continuity errors : sum local = 1.32651e-08, global = 9.30878e-18, cumulative = -8.78189e-17
Pressure gradient source: uncorrected Ubar = 1, pressure gradient = 0.0607142
smoothSolver:  Solving for omega, Initial residual = 8.01339e-06, Final residual = 8.01339e-06, No Iterations 0
smoothSolver:  Solving for k, Initial residual = 0.0100325, Final residual = 0.000914079, No Iterations 5
ExecutionTime = 0.135379 s  ClockTime = 0 s

Time = 60s

smoothSolver:  Solving for Ux, Initial residual = 0.000197922, Final residual = 1.8384e-05, No Iterations 5
smoothSolver:  Solving for Uy, Initial residual = 0.0307963, Final residual = 0.00260391, No Iterations 5
Pressure gradient source: uncorrected Ubar = 1.00001, pressure gradient = 0.0600238
GAMG:  Solving for p, Initial residual = 0.0199599, Final residual = 0.00153068, No Iterations 4
time step continuity errors : sum local = 1.3956e-08, global = 1.87122e-18, cumulative = -8.59477e-17
Pressure gradient source: uncorrected Ubar = 1, pressure gradient = 0.0606784
smoothSolver:  Solving for omega, Initial residual = 8.01338e-06, Final residual = 8.01338e-06, No Iterations 0
smoothSolver:  Solving for k, Initial residual = 0.010024, Final residual = 0.000913046, No Iterations 5
ExecutionTime = 0.137328 s  ClockTime = 0 s

Time = 61s

smoothSolver:  Solving for Ux, Initial residual = 0.000192912, Final residual = 1.80162e-05, No Iterations 5
smoothSolver:  Solving for Uy, Initial residual = 0.0290041, Final residual = 0.00242428, No Iterations 5
Pressure gradient source: uncorrected Ubar = 1.00001, pressure gradient = 0.0600218
GAMG:  Solving for p, Initial residual = 0.0194784, Final residual = 0.00148231, No Iterations 4
time step continuity errors : sum local = 1.31669e-08, global = -6.107e-19, cumulative = -8.65584e-17
Pressure gradient source: uncorrected Ubar = 1, pressure gradient = 0.0606449
smoothSolver:  Solving for omega, Initial residual = 8.01338e-06, Final residual = 8.01338e-06, No Iterations 0
smoothSolver:  Solving for k, Initial residual = 0.010015, Final residual = 0.000900433, No Iterations 5
ExecutionTime = 0.139264 s  ClockTime = 0 s

Time = 62s

smoothSolver:  Solving for Ux, Initial residual = 0.00018801, Final residual = 1.76482e-05, No Iterations 5
smoothSolver:  Solving for Uy, Initial residual = 0.0273854, Final residual = 0.00225208, No Iterations 5
Pressure gradient source: uncorrected Ubar = 1.00001, pressure gradient = 0.0600199
GAMG:  Solving for p, Initial residual = 0.0189646, Final residual = 0.00147742, No Iterations 4
time step continuity errors : sum local = 1.25592e-08, global = 2.3094e-18, cumulative = -8.4249e-17
Pressure gradient source: uncorrected Ubar = 1, pressure gradient = 0.0606134
smoothSolver:  Solving for omega, Initial residual = 8.01337e-06, Final residual = 8.01337e-06, No Iterations 0
smoothSolver:  Solving for k, Initial residual = 0.010005, Final residual = 0.000899034, No Iterations 5
ExecutionTime = 0.141195 s  ClockTime = 0 s

Time = 63s

smoothSolver:  Solving for Ux, Initial residual = 0.000183215, Final residual = 1.72808e-05, No Iterations 5
smoothSolver:  Solving for Uy, Initial residual = 0.0257348, Final residual = 0.00208904, No Iterations 5
Pressure gradient source: uncorrected Ubar = 1.00001, pressure gradient = 0.0600181
GAMG:  Solving for p, Initial residual = 0.0185567, Final residual = 0.00131994, No Iterations 4
time step continuity errors : sum local = 1.07862e-08, global = 6.11706e-18, cumulative = -7.81319e-17
Pressure gradient source: uncorrected Ubar = 1, pressure gradient = 0.0605839
smoothSolver:  Solving for omega, Initial residual = 8.01336e-06, Final residual = 8.01336e-06, No Iterations 0
smoothSolver:  Solving for k, Initial residual = 0.0100006, Final residual = 0.000917206, No Iterations 5
ExecutionTime = 0.143268 s  ClockTime = 0 s

Time = 64s

smoothSolver:  Solving for Ux, Initial residual = 0.000178526, Final residual = 1.6918e-05, No Iterations 5
smoothSolver:  Solving for Uy, Initial residual = 0.0242556, Final residual = 0.00193829, No Iterations 5
Pressure gradient source: uncorrected Ubar = 1.00001, pressure gradient = 0.0600164
GAMG:  Solving for p, Initial residual = 0.0181589, Final residual = 0.00105021, No Iterations 4
time step continuity errors : sum local = 8.60683e-09, global = -8.34317e-19, cumulative = -7.89662e-17
Pressure gradient source: uncorrected Ubar = 1, pressure gradient = 0.0605562
smoothSolver:  Solving for omega, Initial residual = 8.01335e-06, Final residual = 8.01335e-06, No Iterations 0
smoothSolver:  Solving for k, Initial residual = 0.00998657, Final residual = 0.000861023, No Iterations 5
ExecutionTime = 0.145311 s  ClockTime = 0 s

Time = 65s

smoothSolver:  Solving for Ux, Initial residual = 0.000173942, Final residual = 1.6562e-05, No Iterations 5
smoothSolver:  Solving for Uy, Initial residual = 0.0230738, Final residual = 0.00179982, No Iterations 5
Pressure gradient source: uncorrected Ubar = 1.00001, pressure gradient = 0.0600148
GAMG:  Solving for p, Initial residual = 0.0177963, Final residual = 0.000881361, No Iterations 4
time step continuity errors : sum local = 7.03072e-09, global = 1.28188e-18, cumulative = -7.76843e-17
Pressure gradient source: uncorrected Ubar = 1, pressure gradient = 0.0605302
smoothSolver:  Solving for omega, Initial residual = 8.01333e-06, Final residual = 8.01333e-06, No Iterations 0
smoothSolver:  Solving for k, Initial residual = 0.00997988, Final residual = 0.000898991, No Iterations 5
ExecutionTime = 0.147412 s  ClockTime = 0 s

Time = 66s

smoothSolver:  Solving for Ux, Initial residual = 0.000169462, Final residual = 1.621e-05, No Iterations 5
smoothSolver:  Solving for Uy, Initial residual = 0.0217491, Final residual = 0.00166846, No Iterations 5
Pressure gradient source: uncorrected Ubar = 1.00001, pressure gradient = 0.0600133
GAMG:  Solving for p, Initial residual = 0.0174358, Final residual = 0.00167366, No Iterations 3
time step continuity errors : sum local = 1.22251e-08, global = -4.24627e-18, cumulative = -8.19306e-17
Pressure gradient source: uncorrected Ubar = 1, pressure gradient = 0.0605056
smoothSolver:  Solving for omega, Initial residual = 8.01332e-06, Final residual = 8.01332e-06, No Iterations 0
smoothSolver:  Solving for k, Initial residual = 0.0099703, Final residual = 0.000889778, No Iterations 5
ExecutionTime = 0.149422 s  ClockTime = 0 s

Time = 67s

smoothSolver:  Solving for Ux, Initial residual = 0.000165084, Final residual = 1.58606e-05, No Iterations 5
smoothSolver:  Solving for Uy, Initial residual = 0.0206649, Final residual = 0.00155917, No Iterations 5
Pressure gradient source: uncorrected Ubar = 1.00001, pressure gradient = 0.0600118
GAMG:  Solving for p, Initial residual = 0.0170195, Final residual = 0.00159498, No Iterations 3
time step continuity errors : sum local = 1.12362e-08, global = 1.48174e-18, cumulative = -8.04489e-17
Pressure gradient source: uncorrected Ubar = 1, pressure gradient = 0.0604825
smoothSolver:  Solving for omega, Initial residual = 8.01331e-06, Final residual = 8.01331e-06, No Iterations 0
smoothSolver:  Solving for k, Initial residual = 0.00996229, Final residual = 0.000900771, No Iterations 5
ExecutionTime = 0.151411 s  ClockTime = 0 s

Time = 68s

smoothSolver:  Solving for Ux, Initial residual = 0.000160806, Final residual = 1.55136e-05, No Iterations 5
smoothSolver:  Solving for Uy, Initial residual = 0.0194674, Final residual = 0.00143563, No Iterations 5
Pressure gradient source: uncorrected Ubar = 1.00001, pressure gradient = 0.0600104
GAMG:  Solving for p, Initial residual = 0.0167878, Final residual = 0.00159948, No Iterations 3
time step continuity errors : sum local = 1.08749e-08, global = -1.92996e-18, cumulative = -8.23788e-17
Pressure gradient source: uncorrected Ubar = 1, pressure gradient = 0.0604607
smoothSolver:  Solving for omega, Initial residual = 8.0133e-06, Final residual = 8.0133e-06, No Iterations 0
smoothSolver:  Solving for k, Initial residual = 0.00995843, Final residual = 0.00090693, No Iterations 5
ExecutionTime = 0.153315 s  ClockTime = 0 s

Time = 69s

smoothSolver:  Solving for Ux, Initial residual = 0.000156642, Final residual = 1.51695e-05, No Iterations 5
smoothSolver:  Solving for Uy, Initial residual = 0.0183706, Final residual = 0.00132566, No Iterations 5
Pressure gradient source: uncorrected Ubar = 1.00001, pressure gradient = 0.0600091
GAMG:  Solving for p, Initial residual = 0.0165929, Final residual = 0.000610625, No Iterations 4
time step continuity errors : sum local = 4.22351e-09, global = -2.31121e-18, cumulative = -8.469e-17
Pressure gradient source: uncorrected Ubar = 1, pressure gradient = 0.0604402
smoothSolver:  Solving for omega, Initial residual = 8.01328e-06, Final residual = 8.01328e-06, No Iterations 0
smoothSolver:  Solving for k, Initial residual = 0.00994537, Final residual = 0.000849943, No Iterations 5
ExecutionTime = 0.15525 s  ClockTime = 0 s

Time = 70s

smoothSolver:  Solving for Ux, Initial residual = 0.000152629, Final residual = 1.48287e-05, No Iterations 5
smoothSolver:  Solving for Uy, Initial residual = 0.0173503, Final residual = 0.00121727, No Iterations 5
Pressure gradient source: uncorrected Ubar = 1.00001, pressure gradient = 0.0600079
GAMG:  Solving for p, Initial residual = 0.0165361, Final residual = 0.00069393, No Iterations 4
time step continuity errors : sum local = 4.59675e-09, global = 5.8287e-18, cumulative = -7.88613e-17
Pressure gradient source: uncorrected Ubar = 1, pressure gradient = 0.0604207
smoothSolver:  Solving for omega, Initial residual = 8.01327e-06, Final residual = 8.01327e-06, No Iterations 0
smoothSolver:  Solving for k, Initial residual = 0.00993076, Final residual = 0.000854656, No Iterations 5
ExecutionTime = 0.15719 s  ClockTime = 0 s

Time = 71s

smoothSolver:  Solving for Ux, Initial residual = 0.000148706, Final residual = 1.44916e-05, No Iterations 5
smoothSolver:  Solving for Uy, Initial residual = 0.0165484, Final residual = 0.00113768, No Iterations 5
Pressure gradient source: uncorrected Ubar = 1.00001, pressure gradient = 0.0600068
GAMG:  Solving for p, Initial residual = 0.016382, Final residual = 0.000818858, No Iterations 4
time step continuity errors : sum local = 5.16868e-09, global = -1.89006e-19, cumulative = -7.90503e-17
Pressure gradient source: uncorrected Ubar = 1, pressure gradient = 0.0604024
smoothSolver:  Solving for omega, Initial residual = 8.01325e-06, Final residual = 8.01325e-06, No Iterations 0
smoothSolver:  Solving for k, Initial residual = 0.00992971, Final residual = 0.00091994, No Iterations 5
ExecutionTime = 0.159212 s  ClockTime = 0 s

Time = 72s

smoothSolver:  Solving for Ux, Initial residual = 0.00014487, Final residual = 1.41586e-05, No Iterations 5
smoothSolver:  Solving for Uy, Initial residual = 0.0158618, Final residual = 0.00106434, No Iterations 5
Pressure gradient source: uncorrected Ubar = 1, pressure gradient = 0.0600057
GAMG:  Solving for p, Initial residual = 0.0162605, Final residual = 0.000979891, No Iterations 4
time step continuity errors : sum local = 5.90379e-09, global = -9.07729e-18, cumulative = -8.81276e-17
Pressure gradient source: uncorrected Ubar = 1, pressure gradient = 0.060385
smoothSolver:  Solving for omega, Initial residual = 8.01324e-06, Final residual = 8.01324e-06, No Iterations 0
smoothSolver:  Solving for k, Initial residual = 0.00992217, Final residual = 0.000886979, No Iterations 5
ExecutionTime = 0.161224 s  ClockTime = 0 s

Time = 73s

smoothSolver:  Solving for Ux, Initial residual = 0.000141122, Final residual = 1.38299e-05, No Iterations 5
smoothSolver:  Solving for Uy, Initial residual = 0.0151864, Final residual = 0.000996231, No Iterations 5
Pressure gradient source: uncorrected Ubar = 1, pressure gradient = 0.0600046
GAMG:  Solving for p, Initial residual = 0.0161719, Final residual = 0.00114851, No Iterations 4
time step continuity errors : sum local = 6.62776e-09, global = 3.66445e-18, cumulative = -8.44632e-17
Pressure gradient source: uncorrected Ubar = 1, pressure gradient = 0.0603686
smoothSolver:  Solving for omega, Initial residual = 8.01322e-06, Final residual = 8.01322e-06, No Iterations 0
smoothSolver:  Solving for k, Initial residual = 0.00991287, Final residual = 0.000852521, No Iterations 5
ExecutionTime = 0.163423 s  ClockTime = 0 s

Time = 74s

smoothSolver:  Solving for Ux, Initial residual = 0.00013746, Final residual = 1.35057e-05, No Iterations 5
smoothSolver:  Solving for Uy, Initial residual = 0.0145762, Final residual = 0.000934406, No Iterations 5
Pressure gradient source: uncorrected Ubar = 1, pressure gradient = 0.0600036
GAMG:  Solving for p, Initial residual = 0.01609, Final residual = 0.00130482, No Iterations 4
time step continuity errors : sum local = 7.323e-09, global = -5.66267e-19, cumulative = -8.50294e-17
Pressure gradient source: uncorrected Ubar = 1, pressure gradient = 0.060353
smoothSolver:  Solving for omega, Initial residual = 8.01321e-06, Final residual = 8.01321e-06, No Iterations 0
smoothSolver:  Solving for k, Initial residual = 0.00990292, Final residual = 0.000863693, No Iterations 5
ExecutionTime = 0.165495 s  ClockTime = 0 s

Time = 75s

smoothSolver:  Solving for Ux, Initial residual = 0.000133882, Final residual = 1.31863e-05, No Iterations 5
smoothSolver:  Solving for Uy, Initial residual = 0.0140119, Final residual = 0.00087943, No Iterations 5
Pressure gradient source: uncorrected Ubar = 1, pressure gradient = 0.0600027
GAMG:  Solving for p, Initial residual = 0.016004, Final residual = 0.00143787, No Iterations 4
time step continuity errors : sum local = 7.863e-09, global = -1.64686e-17, cumulative = -1.01498e-16
Pressure gradient source: uncorrected Ubar = 1, pressure gradient = 0.0603382
smoothSolver:  Solving for omega, Initial residual = 8.01319e-06, Final residual = 8.01319e-06, No Iterations 0
smoothSolver:  Solving for k, Initial residual = 0.00989698, Final residual = 0.000876879, No Iterations 5
ExecutionTime = 0.167529 s  ClockTime = 0 s

Time = 76s

smoothSolver:  Solving for Ux, Initial residual = 0.000130388, Final residual = 1.28718e-05, No Iterations 5
smoothSolver:  Solving for Uy, Initial residual = 0.0135209, Final residual = 0.000832572, No Iterations 5
Pressure gradient source: uncorrected Ubar = 1, pressure gradient = 0.0600018
GAMG:  Solving for p, Initial residual = 0.0159337, Final residual = 0.00155702, No Iterations 4
time step continuity errors : sum local = 8.28576e-09, global = -3.93408e-18, cumulative = -1.05432e-16
Pressure gradient source: uncorrected Ubar = 1, pressure gradient = 0.0603242
smoothSolver:  Solving for omega, Initial residual = 8.01317e-06, Final residual = 8.01317e-06, No Iterations 0
smoothSolver:  Solving for k, Initial residual = 0.00988498, Final residual = 0.000848422, No Iterations 5
ExecutionTime = 0.169461 s  ClockTime = 0 s

Time = 77s

smoothSolver:  Solving for Ux, Initial residual = 0.000126977, Final residual = 1.25624e-05, No Iterations 5
smoothSolver:  Solving for Uy, Initial residual = 0.0131038, Final residual = 0.000793563, No Iterations 5
Pressure gradient source: uncorrected Ubar = 1, pressure gradient = 0.060001
GAMG:  Solving for p, Initial residual = 0.0158786, Final residual = 0.00109323, No Iterations 5
time step continuity errors : sum local = 5.92384e-09, global = 1.29563e-17, cumulative = -9.24758e-17
Pressure gradient source: uncorrected Ubar = 1, pressure gradient = 0.0603109
smoothSolver:  Solving for omega, Initial residual = 8.01316e-06, Final residual = 8.01316e-06, No Iterations 0
smoothSolver:  Solving for k, Initial residual = 0.00987949, Final residual = 0.000891541, No Iterations 5
ExecutionTime = 0.171456 s  ClockTime = 0 s

Time = 78s

smoothSolver:  Solving for Ux, Initial residual = 0.000123646, Final residual = 1.22596e-05, No Iterations 5
smoothSolver:  Solving for Uy, Initial residual = 0.0125955, Final residual = 0.000733646, No Iterations 5
Pressure gradient source: uncorrected Ubar = 1, pressure gradient = 0.0600002
GAMG:  Solving for p, Initial residual = 0.0157603, Final residual = 0.00133796, No Iterations 4
time step continuity errors : sum local = 6.65424e-09, global = -1.65613e-17, cumulative = -1.09037e-16
Pressure gradient source: uncorrected Ubar = 1, pressure gradient = 0.0602982
smoothSolver:  Solving for omega, Initial residual = 8.01314e-06, Final residual = 8.01314e-06, No Iterations 0
smoothSolver:  Solving for k, Initial residual = 0.00987714, Final residual = 0.00089638, No Iterations 5
ExecutionTime = 0.173383 s  ClockTime = 0 s

Time = 79s

smoothSolver:  Solving for Ux, Initial residual = 0.000120396, Final residual = 1.19639e-05, No Iterations 5
smoothSolver:  Solving for Uy, Initial residual = 0.0126395, Final residual = 0.000756147, No Iterations 5
Pressure gradient source: uncorrected Ubar = 1, pressure gradient = 0.0599994
GAMG:  Solving for p, Initial residual = 0.0156556, Final residual = 0.00101943, No Iterations 5
time step continuity errors : sum local = 5.30743e-09, global = -1.30728e-17, cumulative = -1.2211e-16
Pressure gradient source: uncorrected Ubar = 1, pressure gradient = 0.0602862
smoothSolver:  Solving for omega, Initial residual = 8.01313e-06, Final residual = 8.01313e-06, No Iterations 0
smoothSolver:  Solving for k, Initial residual = 0.00987405, Final residual = 0.000894006, No Iterations 5
ExecutionTime = 0.175369 s  ClockTime = 0 s

Time = 80s

smoothSolver:  Solving for Ux, Initial residual = 0.000117224, Final residual = 1.16734e-05, No Iterations 5
smoothSolver:  Solving for Uy, Initial residual = 0.0122565, Final residual = 0.000708018, No Iterations 5
Pressure gradient source: uncorrected Ubar = 1, pressure gradient = 0.0599987
GAMG:  Solving for p, Initial residual = 0.0155618, Final residual = 0.00151868, No Iterations 4
time step continuity errors : sum local = 7.14714e-09, global = 6.89796e-18, cumulative = -1.15212e-16
Pressure gradient source: uncorrected Ubar = 1, pressure gradient = 0.0602747
smoothSolver:  Solving for omega, Initial residual = 8.01311e-06, Final residual = 8.01311e-06, No Iterations 0
smoothSolver:  Solving for k, Initial residual = 0.00987024, Final residual = 0.000889005, No Iterations 5
ExecutionTime = 0.177423 s  ClockTime = 0 s

Time = 81s

smoothSolver:  Solving for Ux, Initial residual = 0.000114129, Final residual = 1.13891e-05, No Iterations 5
smoothSolver:  Solving for Uy, Initial residual = 0.0122465, Final residual = 0.000740574, No Iterations 5
Pressure gradient source: uncorrected Ubar = 1, pressure gradient = 0.059998
GAMG:  Solving for p, Initial residual = 0.0155165, Final residual = 0.00128535, No Iterations 5
time step continuity errors : sum local = 6.16826e-09, global = -1.36922e-19, cumulative = -1.15349e-16
Pressure gradient source: uncorrected Ubar = 1, pressure gradient = 0.0602638
smoothSolver:  Solving for omega, Initial residual = 8.01309e-06, Final residual = 8.01309e-06, No Iterations 0
smoothSolver:  Solving for k, Initial residual = 0.00986495, Final residual = 0.000869626, No Iterations 5
ExecutionTime = 0.179651 s  ClockTime = 0 s

Time = 82s

smoothSolver:  Solving for Ux, Initial residual = 0.000111109, Final residual = 1.11098e-05, No Iterations 5
smoothSolver:  Solving for Uy, Initial residual = 0.0118904, Final residual = 0.000705882, No Iterations 5
Pressure gradient source: uncorrected Ubar = 1, pressure gradient = 0.0599973
GAMG:  Solving for p, Initial residual = 0.015341, Final residual = 0.00105619, No Iterations 5
time step continuity errors : sum local = 4.96667e-09, global = -9.97498e-18, cumulative = -1.25324e-16
Pressure gradient source: uncorrected Ubar = 1, pressure gradient = 0.0602534
smoothSolver:  Solving for omega, Initial residual = 8.01308e-06, Final residual = 8.01308e-06, No Iterations 0
smoothSolver:  Solving for k, Initial residual = 0.00986488, Final residual = 0.000905862, No Iterations 5
ExecutionTime = 0.181776 s  ClockTime = 0 s

Time = 83s

smoothSolver:  Solving for Ux, Initial residual = 0.000108164, Final residual = 7.11175e-06, No Iterations 6
smoothSolver:  Solving for Uy, Initial residual = 0.01171, Final residual = 0.000717566, No Iterations 5
Pressure gradient source: uncorrected Ubar = 1, pressure gradient = 0.0600888
GAMG:  Solving for p, Initial residual = 0.0834572, Final residual = 0.00434813, No Iterations 4
time step continuity errors : sum local = 1.75934e-08, global = -3.58286e-18, cumulative = -1.28907e-16
Pressure gradient source: uncorrected Ubar = 1, pressure gradient = 0.0602504
smoothSolver:  Solving for omega, Initial residual = 8.01306e-06, Final residual = 8.01306e-06, No Iterations 0
smoothSolver:  Solving for k, Initial residual = 0.00985672, Final residual = 0.00085451, No Iterations 5
ExecutionTime = 0.183807 s  ClockTime = 0 s

Time = 84s

smoothSolver:  Solving for Ux, Initial residual = 0.000105112, Final residual = 6.91298e-06, No Iterations 6
smoothSolver:  Solving for Uy, Initial residual = 0.0355533, Final residual = 0.00204197, No Iterations 5
Pressure gradient source: uncorrected Ubar = 1, pressure gradient = 0.060057
GAMG:  Solving for p, Initial residual = 0.0758494, Final residual = 0.00260093, No Iterations 4
time step continuity errors : sum local = 9.54373e-09, global = -2.16551e-18, cumulative = -1.31072e-16
Pressure gradient source: uncorrected Ubar = 1, pressure gradient = 0.0602428
smoothSolver:  Solving for omega, Initial residual = 8.01304e-06, Final residual = 8.01304e-06, No Iterations 0
smoothSolver:  Solving for k, Initial residual = 0.00984786, Final residual = 0.000851413, No Iterations 5
ExecutionTime = 0.185791 s  ClockTime = 0 s

Time = 85s

smoothSolver:  Solving for Ux, Initial residual = 0.000102198, Final residual = 6.72588e-06, No Iterations 6
smoothSolver:  Solving for Uy, Initial residual = 0.0499899, Final residual = 0.00304807, No Iterations 5
Pressure gradient source: uncorrected Ubar = 1, pressure gradient = 0.0600536
GAMG:  Solving for p, Initial residual = 0.0630995, Final residual = 0.00486772, No Iterations 4
time step continuity errors : sum local = 1.56652e-08, global = 1.78957e-18, cumulative = -1.29283e-16
Pressure gradient source: uncorrected Ubar = 1, pressure gradient = 0.0602352
smoothSolver:  Solving for omega, Initial residual = 8.01303e-06, Final residual = 8.01303e-06, No Iterations 0
smoothSolver:  Solving for k, Initial residual = 0.00984725, Final residual = 0.00088862, No Iterations 5
ExecutionTime = 0.18782 s  ClockTime = 0 s

Time = 86s

smoothSolver:  Solving for Ux, Initial residual = 9.93652e-05, Final residual = 9.97062e-06, No Iterations 5
smoothSolver:  Solving for Uy, Initial residual = 0.0508798, Final residual = 0.00321568, No Iterations 5
Pressure gradient source: uncorrected Ubar = 1, pressure gradient = 0.0599677
GAMG:  Solving for p, Initial residual = 0.0730931, Final residual = 0.00353938, No Iterations 4
time step continuity errors : sum local = 1.22104e-08, global = 1.63114e-18, cumulative = -1.27652e-16
Pressure gradient source: uncorrected Ubar = 1, pressure gradient = 0.0602212
smoothSolver:  Solving for omega, Initial residual = 8.01301e-06, Final residual = 8.01301e-06, No Iterations 0
smoothSolver:  Solving for k, Initial residual = 0.00984063, Final residual = 0.000867269, No Iterations 5
ExecutionTime = 0.189747 s  ClockTime = 0 s

Time = 87s

smoothSolver:  Solving for Ux, Initial residual = 9.6778e-05, Final residual = 9.73331e-06, No Iterations 5
smoothSolver:  Solving for Uy, Initial residual = 0.030247, Final residual = 0.00186377, No Iterations 5
Pressure gradient source: uncorrected Ubar = 1, pressure gradient = 0.0599911
GAMG:  Solving for p, Initial residual = 0.0475237, Final residual = 0.00432617, No Iterations 5
time step continuity errors : sum local = 1.53032e-08, global = -3.19415e-18, cumulative = -1.30846e-16
Pressure gradient source: uncorrected Ubar = 1, pressure gradient = 0.0602118
smoothSolver:  Solving for omega, Initial residual = 8.013e-06, Final residual = 8.013e-06, No Iterations 0
smoothSolver:  Solving for k, Initial residual = 0.00983899, Final residual = 0.00088823, No Iterations 5
ExecutionTime = 0.191757 s  ClockTime = 0 s

Time = 88s

smoothSolver:  Solving for Ux, Initial residual = 9.42282e-05, Final residual = 9.49267e-06, No Iterations 5
smoothSolver:  Solving for Uy, Initial residual = 0.0260358, Final residual = 0.0018901, No Iterations 5
Pressure gradient source: uncorrected Ubar = 1, pressure gradient = 0.0599911
GAMG:  Solving for p, Initial residual = 0.0333613, Final residual = 0.00204333, No Iterations 8
time step continuity errors : sum local = 7.51349e-09, global = -7.09863e-18, cumulative = -1.37944e-16
Pressure gradient source: uncorrected Ubar = 1, pressure gradient = 0.0602029
smoothSolver:  Solving for omega, Initial residual = 8.01299e-06, Final residual = 8.01299e-06, No Iterations 0
smoothSolver:  Solving for k, Initial residual = 0.0098299, Final residual = 0.000849193, No Iterations 5
ExecutionTime = 0.193902 s  ClockTime = 0 s

Time = 89s

smoothSolver:  Solving for Ux, Initial residual = 9.17412e-05, Final residual = 9.25586e-06, No Iterations 5
smoothSolver:  Solving for Uy, Initial residual = 0.0219577, Final residual = 0.00150813, No Iterations 5
Pressure gradient source: uncorrected Ubar = 1, pressure gradient = 0.0599919
GAMG:  Solving for p, Initial residual = 0.0206962, Final residual = 0.000954804, No Iterations 8
time step continuity errors : sum local = 3.2785e-09, global = -3.69519e-18, cumulative = -1.4164e-16
Pressure gradient source: uncorrected Ubar = 1, pressure gradient = 0.0601948
smoothSolver:  Solving for omega, Initial residual = 8.01297e-06, Final residual = 8.01297e-06, No Iterations 0
smoothSolver:  Solving for k, Initial residual = 0.00982444, Final residual = 0.000868831, No Iterations 5
[...]
Pressure gradient source: uncorrected Ubar = 1, pressure gradient = 0.0599441
GAMG:  Solving for p, Initial residual = 0.0137752, Final residual = 0.000764189, No Iterations 4
time step continuity errors : sum local = 2.3549e-09, global = 3.31555e-18, cumulative = -1.36157e-16
Pressure gradient source: uncorrected Ubar = 1, pressure gradient = 0.0600317
smoothSolver:  Solving for omega, Initial residual = 2.77423e-05, Final residual = 1.22408e-06, No Iterations 1
smoothSolver:  Solving for k, Initial residual = 0.00749758, Final residual = 0.000746375, No Iterations 5
bounding k, min: 9.3048e-17 max: 5.12847e-11 average: 2.83651e-11
ExecutionTime = 0.270599 s  ClockTime = 0 s

Time = 125s

smoothSolver:  Solving for Ux, Initial residual = 3.60668e-05, Final residual = 8.8212e-06, No Iterations 3
smoothSolver:  Solving for Uy, Initial residual = 0.01036, Final residual = 0.000625129, No Iterations 5
Pressure gradient source: uncorrected Ubar = 1, pressure gradient = 0.0599455
GAMG:  Solving for p, Initial residual = 0.0110437, Final residual = 0.000969227, No Iterations 5
time step continuity errors : sum local = 2.84705e-09, global = 6.89308e-19, cumulative = -1.35468e-16
Pressure gradient source: uncorrected Ubar = 1, pressure gradient = 0.0600296
smoothSolver:  Solving for omega, Initial residual = 3.3409e-05, Final residual = 2.33686e-06, No Iterations 1
smoothSolver:  Solving for k, Initial residual = 0.00727168, Final residual = 0.000671207, No Iterations 5
bounding k, min: 8.40257e-17 max: 4.6033e-11 average: 2.53443e-11
ExecutionTime = 0.272868 s  ClockTime = 0 s

Time = 126s

smoothSolver:  Solving for Ux, Initial residual = 3.52307e-05, Final residual = 8.62563e-06, No Iterations 3
smoothSolver:  Solving for Uy, Initial residual = 0.00629871, Final residual = 0.000614941, No Iterations 4
Pressure gradient source: uncorrected Ubar = 1, pressure gradient = 0.0599466
GAMG:  Solving for p, Initial residual = 0.0118447, Final residual = 0.00091177, No Iterations 7
time step continuity errors : sum local = 2.6436e-09, global = 2.83192e-18, cumulative = -1.32636e-16
Pressure gradient source: uncorrected Ubar = 1, pressure gradient = 0.0600277
smoothSolver:  Solving for omega, Initial residual = 2.98698e-05, Final residual = 2.62129e-06, No Iterations 1
smoothSolver:  Solving for k, Initial residual = 0.00706809, Final residual = 0.000686128, No Iterations 5
bounding k, min: 7.63703e-17 max: 4.11526e-11 average: 2.2669e-11
ExecutionTime = 0.275019 s  ClockTime = 0 s

Time = 127s

smoothSolver:  Solving for Ux, Initial residual = 3.44105e-05, Final residual = 8.43306e-06, No Iterations 3
smoothSolver:  Solving for Uy, Initial residual = 0.00415092, Final residual = 0.000399149, No Iterations 4
Pressure gradient source: uncorrected Ubar = 1, pressure gradient = 0.0599477
GAMG:  Solving for p, Initial residual = 0.0122687, Final residual = 0.00087577, No Iterations 7
time step continuity errors : sum local = 2.50543e-09, global = -6.0969e-18, cumulative = -1.38733e-16
Pressure gradient source: uncorrected Ubar = 1, pressure gradient = 0.0600259
smoothSolver:  Solving for omega, Initial residual = 2.15039e-05, Final residual = 2.07285e-06, No Iterations 1
smoothSolver:  Solving for k, Initial residual = 0.00686903, Final residual = 0.000658116, No Iterations 5
bounding k, min: 6.97194e-17 max: 3.72502e-11 average: 2.03545e-11
ExecutionTime = 0.277211 s  ClockTime = 0 s

Time = 128s

smoothSolver:  Solving for Ux, Initial residual = 3.36065e-05, Final residual = 8.24334e-06, No Iterations 3
smoothSolver:  Solving for Uy, Initial residual = 0.00435167, Final residual = 0.000252593, No Iterations 5
Pressure gradient source: uncorrected Ubar = 1, pressure gradient = 0.0599487
GAMG:  Solving for p, Initial residual = 0.0124306, Final residual = 0.0011693, No Iterations 6
time step continuity errors : sum local = 3.24641e-09, global = -1.96253e-18, cumulative = -1.40695e-16
Pressure gradient source: uncorrected Ubar = 1, pressure gradient = 0.0600243
smoothSolver:  Solving for omega, Initial residual = 1.39718e-05, Final residual = 1.634e-06, No Iterations 1
smoothSolver:  Solving for k, Initial residual = 0.0066832, Final residual = 0.000648043, No Iterations 5
bounding k, min: 6.39045e-17 max: 3.35635e-11 average: 1.83104e-11
ExecutionTime = 0.279333 s  ClockTime = 0 s

Time = 129s

smoothSolver:  Solving for Ux, Initial residual = 3.28189e-05, Final residual = 8.05668e-06, No Iterations 3
smoothSolver:  Solving for Uy, Initial residual = 0.00596395, Final residual = 0.000557099, No Iterations 4
Pressure gradient source: uncorrected Ubar = 1, pressure gradient = 0.0599496
GAMG:  Solving for p, Initial residual = 0.0130115, Final residual = 0.000810493, No Iterations 5
time step continuity errors : sum local = 2.35216e-09, global = 3.77834e-18, cumulative = -1.36917e-16
Pressure gradient source: uncorrected Ubar = 1, pressure gradient = 0.0600228
smoothSolver:  Solving for omega, Initial residual = 1.1633e-05, Final residual = 1.72025e-06, No Iterations 1
smoothSolver:  Solving for k, Initial residual = 0.00650564, Final residual = 0.000636818, No Iterations 5
bounding k, min: 5.88666e-17 max: 3.05651e-11 average: 1.65165e-11
ExecutionTime = 0.281414 s  ClockTime = 0 s

Time = 130s

smoothSolver:  Solving for Ux, Initial residual = 3.20476e-05, Final residual = 7.87324e-06, No Iterations 3
smoothSolver:  Solving for Uy, Initial residual = 0.00793441, Final residual = 0.000739556, No Iterations 4
Pressure gradient source: uncorrected Ubar = 1, pressure gradient = 0.0599505
GAMG:  Solving for p, Initial residual = 0.0135593, Final residual = 0.000820906, No Iterations 5
time step continuity errors : sum local = 2.34375e-09, global = 6.63808e-18, cumulative = -1.30279e-16
Pressure gradient source: uncorrected Ubar = 1, pressure gradient = 0.0600213
smoothSolver:  Solving for omega, Initial residual = 1.05182e-05, Final residual = 1.91132e-06, No Iterations 1
smoothSolver:  Solving for k, Initial residual = 0.0063371, Final residual = 0.000620026, No Iterations 5
bounding k, min: 5.45258e-17 max: 2.75998e-11 average: 1.49366e-11
ExecutionTime = 0.283501 s  ClockTime = 0 s

Time = 131s

smoothSolver:  Solving for Ux, Initial residual = 3.12927e-05, Final residual = 7.69319e-06, No Iterations 3
smoothSolver:  Solving for Uy, Initial residual = 0.00956145, Final residual = 0.000931322, No Iterations 4
Pressure gradient source: uncorrected Ubar = 1, pressure gradient = 0.0599513
GAMG:  Solving for p, Initial residual = 0.0140489, Final residual = 0.00124401, No Iterations 4
time step continuity errors : sum local = 3.25516e-09, global = -6.0539e-19, cumulative = -1.30884e-16
Pressure gradient source: uncorrected Ubar = 1, pressure gradient = 0.06002
smoothSolver:  Solving for omega, Initial residual = 8.42894e-06, Final residual = 8.42894e-06, No Iterations 0
smoothSolver:  Solving for k, Initial residual = 0.00628724, Final residual = 0.000406088, No Iterations 6
bounding k, min: 5.05659e-17 max: 2.50415e-11 average: 1.34382e-11
ExecutionTime = 0.285553 s  ClockTime = 0 s

Time = 132s

smoothSolver:  Solving for Ux, Initial residual = 3.05542e-05, Final residual = 7.51671e-06, No Iterations 3
smoothSolver:  Solving for Uy, Initial residual = 0.0105911, Final residual = 0.000631209, No Iterations 5
Pressure gradient source: uncorrected Ubar = 1, pressure gradient = 0.0599521
GAMG:  Solving for p, Initial residual = 0.0148396, Final residual = 0.0010855, No Iterations 4
time step continuity errors : sum local = 2.76255e-09, global = 2.64854e-18, cumulative = -1.28236e-16
Pressure gradient source: uncorrected Ubar = 1, pressure gradient = 0.0600187
smoothSolver:  Solving for omega, Initial residual = 1.65472e-05, Final residual = 3.04206e-06, No Iterations 1
smoothSolver:  Solving for k, Initial residual = 0.00613916, Final residual = 0.000599193, No Iterations 5
bounding k, min: 4.73225e-17 max: 2.28285e-11 average: 1.21794e-11
ExecutionTime = 0.287774 s  ClockTime = 0 s

Time = 133s

smoothSolver:  Solving for Ux, Initial residual = 2.98329e-05, Final residual = 7.34364e-06, No Iterations 3
smoothSolver:  Solving for Uy, Initial residual = 0.0112447, Final residual = 0.000680945, No Iterations 5
Pressure gradient source: uncorrected Ubar = 1, pressure gradient = 0.0599529
GAMG:  Solving for p, Initial residual = 0.0149197, Final residual = 0.000800849, No Iterations 4
time step continuity errors : sum local = 1.98841e-09, global = 3.03882e-18, cumulative = -1.25197e-16
Pressure gradient source: uncorrected Ubar = 1, pressure gradient = 0.0600175
smoothSolver:  Solving for omega, Initial residual = 7.1129e-06, Final residual = 7.1129e-06, No Iterations 0
smoothSolver:  Solving for k, Initial residual = 0.00608949, Final residual = 0.000603206, No Iterations 5
bounding k, min: 4.44168e-17 max: 2.08868e-11 average: 1.10448e-11
ExecutionTime = 0.289845 s  ClockTime = 0 s

Time = 134s

smoothSolver:  Solving for Ux, Initial residual = 2.91289e-05, Final residual = 7.17402e-06, No Iterations 3
smoothSolver:  Solving for Uy, Initial residual = 0.01167, Final residual = 0.000711391, No Iterations 5
Pressure gradient source: uncorrected Ubar = 1, pressure gradient = 0.0599536
GAMG:  Solving for p, Initial residual = 0.0147737, Final residual = 0.000605027, No Iterations 4
time step continuity errors : sum local = 1.44746e-09, global = -1.22131e-17, cumulative = -1.3741e-16
Pressure gradient source: uncorrected Ubar = 1, pressure gradient = 0.0600164
smoothSolver:  Solving for omega, Initial residual = 9.79727e-06, Final residual = 9.79727e-06, No Iterations 0
smoothSolver:  Solving for k, Initial residual = 0.00605678, Final residual = 0.000595108, No Iterations 5
bounding k, min: 4.18392e-17 max: 1.89543e-11 average: 1.00193e-11
ExecutionTime = 0.291903 s  ClockTime = 0 s

Time = 135s

smoothSolver:  Solving for Ux, Initial residual = 2.8441e-05, Final residual = 7.00785e-06, No Iterations 3
smoothSolver:  Solving for Uy, Initial residual = 0.0119225, Final residual = 0.00073345, No Iterations 5
Pressure gradient source: uncorrected Ubar = 1, pressure gradient = 0.0599543
GAMG:  Solving for p, Initial residual = 0.0146979, Final residual = 0.00070008, No Iterations 4
time step continuity errors : sum local = 1.57054e-09, global = 3.80808e-18, cumulative = -1.33602e-16
Pressure gradient source: uncorrected Ubar = 1, pressure gradient = 0.0600153
smoothSolver:  Solving for omega, Initial residual = 1.27434e-05, Final residual = 3.31312e-06, No Iterations 1
smoothSolver:  Solving for k, Initial residual = 0.00592055, Final residual = 0.000572192, No Iterations 5
bounding k, min: 3.97102e-17 max: 1.72699e-11 average: 9.11415e-12
ExecutionTime = 0.294136 s  ClockTime = 0 s

Time = 136s

smoothSolver:  Solving for Ux, Initial residual = 2.77685e-05, Final residual = 6.84511e-06, No Iterations 3
smoothSolver:  Solving for Uy, Initial residual = 0.0121519, Final residual = 0.000754583, No Iterations 5
Pressure gradient source: uncorrected Ubar = 1, pressure gradient = 0.059955
GAMG:  Solving for p, Initial residual = 0.0146534, Final residual = 0.0010547, No Iterations 4
time step continuity errors : sum local = 2.28743e-09, global = -3.29715e-19, cumulative = -1.33932e-16
Pressure gradient source: uncorrected Ubar = 1, pressure gradient = 0.0600143
smoothSolver:  Solving for omega, Initial residual = 4.57471e-06, Final residual = 4.57471e-06, No Iterations 0
smoothSolver:  Solving for k, Initial residual = 0.00587948, Final residual = 0.000375424, No Iterations 6
bounding k, min: 3.77528e-17 max: 1.56655e-11 average: 8.25129e-12
ExecutionTime = 0.296297 s  ClockTime = 0 s

Time = 137s

smoothSolver:  Solving for Ux, Initial residual = 2.71111e-05, Final residual = 6.6858e-06, No Iterations 3
smoothSolver:  Solving for Uy, Initial residual = 0.0123648, Final residual = 0.000781328, No Iterations 5
Pressure gradient source: uncorrected Ubar = 1, pressure gradient = 0.0599557
GAMG:  Solving for p, Initial residual = 0.0145362, Final residual = 0.00135678, No Iterations 4
time step continuity errors : sum local = 2.87764e-09, global = 8.12675e-18, cumulative = -1.25805e-16
Pressure gradient source: uncorrected Ubar = 1, pressure gradient = 0.0600133
smoothSolver:  Solving for omega, Initial residual = 6.34243e-06, Final residual = 6.34243e-06, No Iterations 0
smoothSolver:  Solving for k, Initial residual = 0.0058499, Final residual = 0.000583958, No Iterations 5
bounding k, min: 3.6024e-17 max: 1.4406e-11 average: 7.49948e-12
ExecutionTime = 0.298382 s  ClockTime = 0 s

Time = 138s

smoothSolver:  Solving for Ux, Initial residual = 2.64687e-05, Final residual = 6.52987e-06, No Iterations 3
smoothSolver:  Solving for Uy, Initial residual = 0.0126443, Final residual = 0.000805942, No Iterations 5
Pressure gradient source: uncorrected Ubar = 1, pressure gradient = 0.0599563
GAMG:  Solving for p, Initial residual = 0.0143434, Final residual = 0.00131726, No Iterations 4
time step continuity errors : sum local = 2.81828e-09, global = 3.97472e-18, cumulative = -1.2183e-16
Pressure gradient source: uncorrected Ubar = 1, pressure gradient = 0.0600124
smoothSolver:  Solving for omega, Initial residual = 7.73419e-06, Final residual = 7.73419e-06, No Iterations 0
smoothSolver:  Solving for k, Initial residual = 0.00582588, Final residual = 0.000373538, No Iterations 6
bounding k, min: 3.44652e-17 max: 1.30455e-11 average: 6.78673e-12
ExecutionTime = 0.300488 s  ClockTime = 0 s

Time = 139s

smoothSolver:  Solving for Ux, Initial residual = 2.5841e-05, Final residual = 9.80063e-06, No Iterations 2
smoothSolver:  Solving for Uy, Initial residual = 0.0128702, Final residual = 0.00082218, No Iterations 5
Pressure gradient source: uncorrected Ubar = 1, pressure gradient = 0.059924
GAMG:  Solving for p, Initial residual = 0.0425687, Final residual = 0.00297067, No Iterations 4
time step continuity errors : sum local = 6.34031e-09, global = -7.92923e-18, cumulative = -1.2976e-16
Pressure gradient source: uncorrected Ubar = 1, pressure gradient = 0.0600037
smoothSolver:  Solving for omega, Initial residual = 8.87387e-06, Final residual = 8.87387e-06, No Iterations 0
smoothSolver:  Solving for k, Initial residual = 0.00579333, Final residual = 0.000552555, No Iterations 5
bounding k, min: 3.31125e-17 max: 1.19648e-11 average: 6.18246e-12
ExecutionTime = 0.302511 s  ClockTime = 0 s

Time = 140s

smoothSolver:  Solving for Ux, Initial residual = 2.53874e-05, Final residual = 9.67124e-06, No Iterations 2
smoothSolver:  Solving for Uy, Initial residual = 0.0154947, Final residual = 0.000915752, No Iterations 5
Pressure gradient source: uncorrected Ubar = 1, pressure gradient = 0.0599451
GAMG:  Solving for p, Initial residual = 0.0347987, Final residual = 0.00217934, No Iterations 7
time step continuity errors : sum local = 4.93953e-09, global = 1.1915e-17, cumulative = -1.17845e-16
Pressure gradient source: uncorrected Ubar = 1, pressure gradient = 0.0600009
smoothSolver:  Solving for omega, Initial residual = 9.73939e-06, Final residual = 9.73939e-06, No Iterations 0
smoothSolver:  Solving for k, Initial residual = 0.00577747, Final residual = 0.000371694, No Iterations 6
bounding k, min: 3.19024e-17 max: 1.09128e-11 average: 5.5956e-12
ExecutionTime = 0.304658 s  ClockTime = 0 s

Time = 141s

smoothSolver:  Solving for Ux, Initial residual = 2.49099e-05, Final residual = 9.51382e-06, No Iterations 2
smoothSolver:  Solving for Uy, Initial residual = 0.0196389, Final residual = 0.00189932, No Iterations 4
Pressure gradient source: uncorrected Ubar = 1, pressure gradient = 0.0599472
GAMG:  Solving for p, Initial residual = 0.0264621, Final residual = 0.00229484, No Iterations 7
time step continuity errors : sum local = 5.28762e-09, global = 7.11791e-19, cumulative = -1.17133e-16
Pressure gradient source: uncorrected Ubar = 1, pressure gradient = 0.0599988
smoothSolver:  Solving for omega, Initial residual = 1.04364e-05, Final residual = 3.79245e-06, No Iterations 1
smoothSolver:  Solving for k, Initial residual = 0.00565088, Final residual = 0.000551265, No Iterations 5
bounding k, min: 3.0927e-17 max: 9.95064e-12 average: 5.10206e-12
ExecutionTime = 0.306797 s  ClockTime = 0 s

Time = 142s

smoothSolver:  Solving for Ux, Initial residual = 2.44362e-05, Final residual = 9.35214e-06, No Iterations 2
smoothSolver:  Solving for Uy, Initial residual = 0.0189545, Final residual = 0.00185829, No Iterations 4
Pressure gradient source: uncorrected Ubar = 1, pressure gradient = 0.0599489
GAMG:  Solving for p, Initial residual = 0.0196741, Final residual = 0.00132517, No Iterations 6
time step continuity errors : sum local = 3.22815e-09, global = -7.85664e-18, cumulative = -1.24989e-16
Pressure gradient source: uncorrected Ubar = 1, pressure gradient = 0.0599972
smoothSolver:  Solving for omega, Initial residual = 4.66099e-06, Final residual = 4.66099e-06, No Iterations 0
smoothSolver:  Solving for k, Initial residual = 0.00561466, Final residual = 0.000545012, No Iterations 5
bounding k, min: 3.00593e-17 max: 9.12267e-12 average: 4.65633e-12
ExecutionTime = 0.308884 s  ClockTime = 0 s

Time = 143s

smoothSolver:  Solving for Ux, Initial residual = 2.39672e-05, Final residual = 9.18791e-06, No Iterations 2
smoothSolver:  Solving for Uy, Initial residual = 0.0152623, Final residual = 0.00149523, No Iterations 4
Pressure gradient source: uncorrected Ubar = 1, pressure gradient = 0.0599501
GAMG:  Solving for p, Initial residual = 0.0146543, Final residual = 0.00143668, No Iterations 5
time step continuity errors : sum local = 3.68497e-09, global = 1.81719e-18, cumulative = -1.23172e-16
Pressure gradient source: uncorrected Ubar = 1, pressure gradient = 0.0599959
smoothSolver:  Solving for omega, Initial residual = 5.00502e-06, Final residual = 5.00502e-06, No Iterations 0
smoothSolver:  Solving for k, Initial residual = 0.00560386, Final residual = 0.000372107, No Iterations 6
bounding k, min: 2.92534e-17 max: 8.30003e-12 average: 4.22106e-12
ExecutionTime = 0.310956 s  ClockTime = 0 s

Time = 144s

smoothSolver:  Solving for Ux, Initial residual = 2.35039e-05, Final residual = 9.02267e-06, No Iterations 2
smoothSolver:  Solving for Uy, Initial residual = 0.0110701, Final residual = 0.00107505, No Iterations 4
Pressure gradient source: uncorrected Ubar = 1, pressure gradient = 0.0599511
GAMG:  Solving for p, Initial residual = 0.0109905, Final residual = 0.00109884, No Iterations 3
time step continuity errors : sum local = 2.8069e-09, global = 5.78781e-18, cumulative = -1.17384e-16
Pressure gradient source: uncorrected Ubar = 1, pressure gradient = 0.0599948
smoothSolver:  Solving for omega, Initial residual = 5.29495e-06, Final residual = 5.29495e-06, No Iterations 0
smoothSolver:  Solving for k, Initial residual = 0.00558792, Final residual = 0.000369797, No Iterations 6
bounding k, min: 2.85207e-17 max: 7.56712e-12 average: 3.82721e-12
ExecutionTime = 0.312942 s  ClockTime = 0 s

Time = 145s

smoothSolver:  Solving for Ux, Initial residual = 2.30464e-05, Final residual = 8.8575e-06, No Iterations 2
smoothSolver:  Solving for Uy, Initial residual = 0.00712949, Final residual = 0.000694337, No Iterations 4
Pressure gradient source: uncorrected Ubar = 1, pressure gradient = 0.0599519
GAMG:  Solving for p, Initial residual = 0.00881477, Final residual = 0.000663144, No Iterations 6
time step continuity errors : sum local = 1.75074e-09, global = 1.43577e-17, cumulative = -1.03027e-16
Pressure gradient source: uncorrected Ubar = 1, pressure gradient = 0.0599939
smoothSolver:  Solving for omega, Initial residual = 5.52655e-06, Final residual = 5.52655e-06, No Iterations 0
smoothSolver:  Solving for k, Initial residual = 0.00557015, Final residual = 0.000355359, No Iterations 6
bounding k, min: 2.78939e-17 max: 6.88132e-12 average: 3.47426e-12
ExecutionTime = 0.315033 s  ClockTime = 0 s


SIMPLE solution converged in 145 iterations

End

