/*---------------------------------------------------------------------------*\
  =========                 |
  \\      /  F ield         | OpenFOAM: The Open Source CFD Toolbox
   \\    /   O peration     | Website:  https://openfoam.org
    \\  /    A nd           | Version:  10
     \\/     M anipulation  |
\*---------------------------------------------------------------------------*/
Build  : 10-e450dce21ea5
Exec   : blockMesh
Date   : Jan 16 2023
Time   : 11:42:22
Host   : "w530-R9YK46P"
PID    : 13757
I/O    : uncollated
Case   : /home/jdmezazeron/gitDanielMezaZ/turbulenceVisualized/Data/SimulationFiles/E5_Re276
nProcs : 1
sigFpe : Enabling floating point exception trapping (FOAM_SIGFPE).
fileModificationChecking : Monitoring run-time modified files using timeStampMaster (fileModificationSkew 10)
allowSystemOperations : Allowing user-supplied system call operations

// * * * * * * * * * * * * * * * * * * * * * * * * * * * * * * * * * * * * * //
Create time

Reading "blockMeshDict"

Creating block mesh from
    "system/blockMeshDict"
Creating block edges
No non-planar block faces defined
Creating topology blocks
Creating topology patches

Creating block mesh topology

Check topology

	Basic statistics
		Number of internal faces : 0
		Number of boundary faces : 6
		Number of defined boundary faces : 6
		Number of undefined boundary faces : 0
	Checking patch -> block consistency

Creating block offsets
Creating merge list .

Creating polyMesh from blockMesh
Creating patches
Creating cells
Creating points with scale 1
    Block 0 cell size :
        i : 0.5
        j : 0.00921276 .. 0.036851
        k : 2

Detected cyclic patches; ordering boundary faces

Writing polyMesh
----------------
Mesh Information
----------------
  boundingBox: (-1 0 -1) (1 1 1)
  nPoints: 510
  nCells: 200
  nFaces: 854
  nInternalFaces: 346
----------------
Patches
----------------
  patch 0 (start: 346 size: 50) name: inlet
  patch 1 (start: 396 size: 50) name: outlet
  patch 2 (start: 446 size: 4) name: fixedWalls-bottom
  patch 3 (start: 450 size: 4) name: fixedWalls-top
  patch 4 (start: 454 size: 400) name: frontAndBack

End

/*---------------------------------------------------------------------------*\
  =========                 |
  \\      /  F ield         | OpenFOAM: The Open Source CFD Toolbox
   \\    /   O peration     | Website:  https://openfoam.org
    \\  /    A nd           | Version:  10
     \\/     M anipulation  |
\*---------------------------------------------------------------------------*/
Build  : 10-e450dce21ea5
Exec   : simpleFoam
Date   : Jan 16 2023
Time   : 11:42:22
Host   : "w530-R9YK46P"
PID    : 13758
I/O    : uncollated
Case   : /home/jdmezazeron/gitDanielMezaZ/turbulenceVisualized/Data/SimulationFiles/E5_Re276
nProcs : 1
sigFpe : Enabling floating point exception trapping (FOAM_SIGFPE).
fileModificationChecking : Monitoring run-time modified files using timeStampMaster (fileModificationSkew 10)
allowSystemOperations : Allowing user-supplied system call operations

// * * * * * * * * * * * * * * * * * * * * * * * * * * * * * * * * * * * * * //
Create time

Create mesh for time = 0


SIMPLE: Convergence criteria found
        U: tolerance 0.01
        p: tolerance 0.01
        omega: tolerance 0.0001

Reading field p

Reading field U

Reading/calculating face flux field phi

Selecting viscosity model Newtonian
Selecting turbulence model type RAS
Selecting RAS turbulence model kOmegaSST
Selecting patchDistMethod meshWave
RAS
{
    RASModel        kOmegaSST;
    turbulence      on;
    printCoeffs     on;
    alphaK1         0.85;
    alphaK2         1;
    alphaOmega1     0.5;
    alphaOmega2     0.856;
    gamma1          0.555556;
    gamma2          0.44;
    beta1           0.075;
    beta2           0.0828;
    betaStar        0.09;
    a1              0.31;
    b1              1;
    c1              10;
    F3              false;
}

No MRF models present

--> FOAM Warning : Creating fvModels from "system/fvOptions" rather than constant/fvModels
No fvModels present
--> FOAM Warning : Creating fvConstraints from "system/fvOptions"

Selecting finite volume constraint type meanVelocityForce
    Name: momentumSource
    - selecting all cells
    - selected 200 cell(s) with volume 4
    Initial pressure gradient = 0


Starting time loop

turbulenceFields stressComponents: storing fields:
    R

Time = 1s

smoothSolver:  Solving for Ux, Initial residual = 0, Final residual = 0, No Iterations 0
smoothSolver:  Solving for Uy, Initial residual = 0, Final residual = 0, No Iterations 0
Pressure gradient source: uncorrected Ubar = 0, pressure gradient = 28.3836
GAMG:  Solving for p, Initial residual = 0.999985, Final residual = 0.0357759, No Iterations 3
time step continuity errors : sum local = 4.97701e-17, global = -3.12491e-18, cumulative = -3.12491e-18
Pressure gradient source: uncorrected Ubar = 0.869361, pressure gradient = 3.708
smoothSolver:  Solving for omega, Initial residual = 0.0180861, Final residual = 0.00139705, No Iterations 2
smoothSolver:  Solving for k, Initial residual = 1, Final residual = 0.0347295, No Iterations 1
ExecutionTime = 0.012691 s  ClockTime = 0 s

Time = 2s

smoothSolver:  Solving for Ux, Initial residual = 0.38521, Final residual = 0.0322744, No Iterations 6
smoothSolver:  Solving for Uy, Initial residual = 1, Final residual = 0.0757698, No Iterations 2
Pressure gradient source: uncorrected Ubar = 1.87264, pressure gradient = -25.1529
GAMG:  Solving for p, Initial residual = 1, Final residual = 0.0726804, No Iterations 7
time step continuity errors : sum local = 0.000541052, global = 1.32849e-17, cumulative = 1.016e-17
Pressure gradient source: uncorrected Ubar = 1.11884, pressure gradient = -0.222417
smoothSolver:  Solving for omega, Initial residual = 0.164741, Final residual = 0.000632947, No Iterations 1
smoothSolver:  Solving for k, Initial residual = 0.122065, Final residual = 0.00623729, No Iterations 3
ExecutionTime = 0.014792 s  ClockTime = 0 s

Time = 3s

smoothSolver:  Solving for Ux, Initial residual = 0.0541486, Final residual = 0.00510708, No Iterations 5
smoothSolver:  Solving for Uy, Initial residual = 0.322566, Final residual = 0.0226058, No Iterations 4
Pressure gradient source: uncorrected Ubar = 0.926671, pressure gradient = 2.25351
GAMG:  Solving for p, Initial residual = 0.187776, Final residual = 0.0154067, No Iterations 5
time step continuity errors : sum local = 0.000238847, global = -3.26108e-18, cumulative = 6.89888e-18
Pressure gradient source: uncorrected Ubar = 0.989457, pressure gradient = 0.133554
smoothSolver:  Solving for omega, Initial residual = 0.00894944, Final residual = 0.000185383, No Iterations 1
smoothSolver:  Solving for k, Initial residual = 0.046958, Final residual = 0.00252081, No Iterations 4
ExecutionTime = 0.016786 s  ClockTime = 0 s

Time = 4s

smoothSolver:  Solving for Ux, Initial residual = 0.0245845, Final residual = 0.00168948, No Iterations 5
smoothSolver:  Solving for Uy, Initial residual = 0.177097, Final residual = 0.00978123, No Iterations 4
Pressure gradient source: uncorrected Ubar = 1.01134, pressure gradient = -0.242016
GAMG:  Solving for p, Initial residual = 0.154128, Final residual = 0.0108226, No Iterations 6
time step continuity errors : sum local = 0.000157913, global = -1.70592e-18, cumulative = 5.19296e-18
Pressure gradient source: uncorrected Ubar = 1.00157, pressure gradient = 0.0816841
smoothSolver:  Solving for omega, Initial residual = 0.00855162, Final residual = 0.000143587, No Iterations 1
smoothSolver:  Solving for k, Initial residual = 0.0321733, Final residual = 0.00242127, No Iterations 4
ExecutionTime = 0.018834 s  ClockTime = 0 s

Time = 5s

smoothSolver:  Solving for Ux, Initial residual = 0.0169204, Final residual = 0.00114382, No Iterations 5
smoothSolver:  Solving for Uy, Initial residual = 0.359869, Final residual = 0.0308517, No Iterations 4
Pressure gradient source: uncorrected Ubar = 1.0028, pressure gradient = -0.0106923
GAMG:  Solving for p, Initial residual = 0.167552, Final residual = 0.0155206, No Iterations 6
time step continuity errors : sum local = 0.000152824, global = -4.48737e-18, cumulative = 7.0559e-19
Pressure gradient source: uncorrected Ubar = 1.00036, pressure gradient = 0.0699434
smoothSolver:  Solving for omega, Initial residual = 0.00343702, Final residual = 9.03422e-05, No Iterations 1
smoothSolver:  Solving for k, Initial residual = 0.0258501, Final residual = 0.00232182, No Iterations 4
ExecutionTime = 0.020926 s  ClockTime = 0 s

Time = 6s

smoothSolver:  Solving for Ux, Initial residual = 0.0131679, Final residual = 0.000905909, No Iterations 5
smoothSolver:  Solving for Uy, Initial residual = 0.363384, Final residual = 0.0356233, No Iterations 3
Pressure gradient source: uncorrected Ubar = 1.00246, pressure gradient = -0.0109188
GAMG:  Solving for p, Initial residual = 0.191249, Final residual = 0.00840254, No Iterations 8
time step continuity errors : sum local = 5.08633e-05, global = -1.4956e-17, cumulative = -1.42505e-17
Pressure gradient source: uncorrected Ubar = 1.00031, pressure gradient = 0.0596699
smoothSolver:  Solving for omega, Initial residual = 0.00231075, Final residual = 5.82978e-05, No Iterations 1
smoothSolver:  Solving for k, Initial residual = 0.0227841, Final residual = 0.00204534, No Iterations 4
ExecutionTime = 0.023102 s  ClockTime = 0 s

Time = 7s

smoothSolver:  Solving for Ux, Initial residual = 0.0105445, Final residual = 0.000736872, No Iterations 5
smoothSolver:  Solving for Uy, Initial residual = 0.221698, Final residual = 0.0197404, No Iterations 3
Pressure gradient source: uncorrected Ubar = 1.00178, pressure gradient = 0.00119486
GAMG:  Solving for p, Initial residual = 0.197006, Final residual = 0.0115148, No Iterations 7
time step continuity errors : sum local = 4.49223e-05, global = 4.41516e-19, cumulative = -1.38089e-17
Pressure gradient source: uncorrected Ubar = 1.00022, pressure gradient = 0.052426
smoothSolver:  Solving for omega, Initial residual = 0.00116753, Final residual = 3.47178e-05, No Iterations 1
smoothSolver:  Solving for k, Initial residual = 0.0201195, Final residual = 0.00197147, No Iterations 4
ExecutionTime = 0.025279 s  ClockTime = 0 s

Time = 8s

smoothSolver:  Solving for Ux, Initial residual = 0.00870072, Final residual = 0.000615644, No Iterations 5
smoothSolver:  Solving for Uy, Initial residual = 0.173517, Final residual = 0.0143258, No Iterations 3
Pressure gradient source: uncorrected Ubar = 1.00138, pressure gradient = 0.00736756
GAMG:  Solving for p, Initial residual = 0.161781, Final residual = 0.0158789, No Iterations 6
time step continuity errors : sum local = 5.99004e-05, global = -1.12136e-17, cumulative = -2.50225e-17
Pressure gradient source: uncorrected Ubar = 1.00017, pressure gradient = 0.0469546
smoothSolver:  Solving for omega, Initial residual = 0.000691715, Final residual = 2.28117e-05, No Iterations 1
smoothSolver:  Solving for k, Initial residual = 0.0182356, Final residual = 0.00168114, No Iterations 4
ExecutionTime = 0.027361 s  ClockTime = 0 s

Time = 9s

smoothSolver:  Solving for Ux, Initial residual = 0.00731655, Final residual = 0.000522702, No Iterations 5
smoothSolver:  Solving for Uy, Initial residual = 0.207728, Final residual = 0.0115368, No Iterations 4
Pressure gradient source: uncorrected Ubar = 1.00107, pressure gradient = 0.0119596
GAMG:  Solving for p, Initial residual = 0.145397, Final residual = 0.0111971, No Iterations 6
time step continuity errors : sum local = 4.00289e-05, global = -4.27095e-18, cumulative = -2.92934e-17
Pressure gradient source: uncorrected Ubar = 1.00013, pressure gradient = 0.0427969
smoothSolver:  Solving for omega, Initial residual = 0.000377061, Final residual = 1.43787e-05, No Iterations 1
smoothSolver:  Solving for k, Initial residual = 0.0166492, Final residual = 0.00115072, No Iterations 5
ExecutionTime = 0.029344 s  ClockTime = 0 s

Time = 10s

smoothSolver:  Solving for Ux, Initial residual = 0.00621923, Final residual = 0.000449314, No Iterations 5
smoothSolver:  Solving for Uy, Initial residual = 0.275271, Final residual = 0.0169132, No Iterations 4
Pressure gradient source: uncorrected Ubar = 1.00087, pressure gradient = 0.0144931
GAMG:  Solving for p, Initial residual = 0.124029, Final residual = 0.0104499, No Iterations 5
time step continuity errors : sum local = 3.27875e-05, global = 1.86294e-18, cumulative = -2.74305e-17
Pressure gradient source: uncorrected Ubar = 1.0001, pressure gradient = 0.0394879
smoothSolver:  Solving for omega, Initial residual = 0.000216058, Final residual = 1.00429e-05, No Iterations 1
smoothSolver:  Solving for k, Initial residual = 0.0153263, Final residual = 0.00102034, No Iterations 5
ExecutionTime = 0.031292 s  ClockTime = 0 s

Time = 11s

smoothSolver:  Solving for Ux, Initial residual = 0.0053337, Final residual = 0.000389205, No Iterations 5
smoothSolver:  Solving for Uy, Initial residual = 0.349779, Final residual = 0.0222986, No Iterations 4
Pressure gradient source: uncorrected Ubar = 1.00071, pressure gradient = 0.0165958
GAMG:  Solving for p, Initial residual = 0.108341, Final residual = 0.00490856, No Iterations 4
time step continuity errors : sum local = 1.38018e-05, global = 5.83045e-18, cumulative = -2.16001e-17
Pressure gradient source: uncorrected Ubar = 1.00008, pressure gradient = 0.036861
smoothSolver:  Solving for omega, Initial residual = 0.000121814, Final residual = 6.9596e-06, No Iterations 1
smoothSolver:  Solving for k, Initial residual = 0.0140794, Final residual = 0.00140727, No Iterations 4
ExecutionTime = 0.033261 s  ClockTime = 0 s

Time = 12s

smoothSolver:  Solving for Ux, Initial residual = 0.00462133, Final residual = 0.000339804, No Iterations 5
smoothSolver:  Solving for Uy, Initial residual = 0.392589, Final residual = 0.0256666, No Iterations 4
Pressure gradient source: uncorrected Ubar = 1.00058, pressure gradient = 0.0181926
GAMG:  Solving for p, Initial residual = 0.10598, Final residual = 0.00984216, No Iterations 3
time step continuity errors : sum local = 2.51112e-05, global = 4.7311e-18, cumulative = -1.6869e-17
Pressure gradient source: uncorrected Ubar = 1.00006, pressure gradient = 0.0347615
smoothSolver:  Solving for omega, Initial residual = 7.01384e-05, Final residual = 5.28048e-06, No Iterations 1
smoothSolver:  Solving for k, Initial residual = 0.013139, Final residual = 0.00102356, No Iterations 5
ExecutionTime = 0.035234 s  ClockTime = 0 s

Time = 13s

smoothSolver:  Solving for Ux, Initial residual = 0.00403851, Final residual = 0.000297731, No Iterations 5
smoothSolver:  Solving for Uy, Initial residual = 0.367726, Final residual = 0.0229847, No Iterations 4
Pressure gradient source: uncorrected Ubar = 1.00049, pressure gradient = 0.0189341
GAMG:  Solving for p, Initial residual = 0.109041, Final residual = 0.00833038, No Iterations 5
time step continuity errors : sum local = 1.82649e-05, global = 7.80922e-18, cumulative = -9.05973e-18
Pressure gradient source: uncorrected Ubar = 1.00005, pressure gradient = 0.0330034
smoothSolver:  Solving for omega, Initial residual = 4.08553e-05, Final residual = 4.00529e-06, No Iterations 1
smoothSolver:  Solving for k, Initial residual = 0.0122349, Final residual = 0.000943185, No Iterations 5
ExecutionTime = 0.03732 s  ClockTime = 0 s

Time = 14s

smoothSolver:  Solving for Ux, Initial residual = 0.00353916, Final residual = 0.000262797, No Iterations 5
smoothSolver:  Solving for Uy, Initial residual = 0.384309, Final residual = 0.0267804, No Iterations 4
Pressure gradient source: uncorrected Ubar = 1.00041, pressure gradient = 0.0196663
GAMG:  Solving for p, Initial residual = 0.120698, Final residual = 0.00950116, No Iterations 5
time step continuity errors : sum local = 1.70338e-05, global = -4.30296e-18, cumulative = -1.33627e-17
Pressure gradient source: uncorrected Ubar = 1.00005, pressure gradient = 0.0315455
smoothSolver:  Solving for omega, Initial residual = 2.43239e-05, Final residual = 3.23417e-06, No Iterations 1
smoothSolver:  Solving for k, Initial residual = 0.0113793, Final residual = 0.000706111, No Iterations 5
ExecutionTime = 0.039451 s  ClockTime = 0 s

Time = 15s

smoothSolver:  Solving for Ux, Initial residual = 0.00312149, Final residual = 0.000232374, No Iterations 5
smoothSolver:  Solving for Uy, Initial residual = 0.3626, Final residual = 0.0254105, No Iterations 4
Pressure gradient source: uncorrected Ubar = 1.00035, pressure gradient = 0.0202845
GAMG:  Solving for p, Initial residual = 0.127423, Final residual = 0.0119395, No Iterations 5
time step continuity errors : sum local = 1.7086e-05, global = 2.13487e-17, cumulative = 7.986e-18
Pressure gradient source: uncorrected Ubar = 1.00004, pressure gradient = 0.0303364
smoothSolver:  Solving for omega, Initial residual = 1.49602e-05, Final residual = 2.6357e-06, No Iterations 1
smoothSolver:  Solving for k, Initial residual = 0.0106436, Final residual = 0.000758647, No Iterations 5
ExecutionTime = 0.04154 s  ClockTime = 0 s

Time = 16s

smoothSolver:  Solving for Ux, Initial residual = 0.00275777, Final residual = 0.000206487, No Iterations 5
smoothSolver:  Solving for Uy, Initial residual = 0.306921, Final residual = 0.0219375, No Iterations 4
Pressure gradient source: uncorrected Ubar = 1.0003, pressure gradient = 0.0206878
GAMG:  Solving for p, Initial residual = 0.134376, Final residual = 0.0115348, No Iterations 6
time step continuity errors : sum local = 1.19373e-05, global = -1.42016e-18, cumulative = 6.56585e-18
Pressure gradient source: uncorrected Ubar = 1.00003, pressure gradient = 0.0293168
smoothSolver:  Solving for omega, Initial residual = 9.53151e-06, Final residual = 9.53151e-06, No Iterations 0
smoothSolver:  Solving for k, Initial residual = 0.0105084, Final residual = 0.000787, No Iterations 5
ExecutionTime = 0.043649 s  ClockTime = 0 s

Time = 17s

smoothSolver:  Solving for Ux, Initial residual = 0.00244797, Final residual = 0.000183397, No Iterations 5
smoothSolver:  Solving for Uy, Initial residual = 0.267824, Final residual = 0.0185362, No Iterations 4
Pressure gradient source: uncorrected Ubar = 1.00027, pressure gradient = 0.0208002
GAMG:  Solving for p, Initial residual = 0.136835, Final residual = 0.0136755, No Iterations 6
time step continuity errors : sum local = 1.14497e-05, global = 2.59901e-18, cumulative = 9.16486e-18
Pressure gradient source: uncorrected Ubar = 1.00003, pressure gradient = 0.0284236
smoothSolver:  Solving for omega, Initial residual = 9.54626e-06, Final residual = 9.54626e-06, No Iterations 0
smoothSolver:  Solving for k, Initial residual = 0.0104382, Final residual = 0.000599046, No Iterations 5
ExecutionTime = 0.045649 s  ClockTime = 0 s

Time = 18s

smoothSolver:  Solving for Ux, Initial residual = 0.00218029, Final residual = 0.000164052, No Iterations 5
smoothSolver:  Solving for Uy, Initial residual = 0.218593, Final residual = 0.0137877, No Iterations 4
Pressure gradient source: uncorrected Ubar = 1.00023, pressure gradient = 0.0210686
GAMG:  Solving for p, Initial residual = 0.134573, Final residual = 0.0133244, No Iterations 6
time step continuity errors : sum local = 8.91976e-06, global = -3.65553e-18, cumulative = 5.50933e-18
Pressure gradient source: uncorrected Ubar = 1.00002, pressure gradient = 0.0276648
smoothSolver:  Solving for omega, Initial residual = 9.55571e-06, Final residual = 9.55571e-06, No Iterations 0
smoothSolver:  Solving for k, Initial residual = 0.0104599, Final residual = 0.000779964, No Iterations 5
ExecutionTime = 0.047629 s  ClockTime = 0 s

Time = 19s

smoothSolver:  Solving for Ux, Initial residual = 0.00195048, Final residual = 0.000147126, No Iterations 5
smoothSolver:  Solving for Uy, Initial residual = 0.173726, Final residual = 0.00971397, No Iterations 4
Pressure gradient source: uncorrected Ubar = 1.0002, pressure gradient = 0.0211922
GAMG:  Solving for p, Initial residual = 0.132711, Final residual = 0.0130279, No Iterations 6
time step continuity errors : sum local = 6.87557e-06, global = 7.54914e-18, cumulative = 1.30585e-17
Pressure gradient source: uncorrected Ubar = 1.00002, pressure gradient = 0.0270048
smoothSolver:  Solving for omega, Initial residual = 9.56281e-06, Final residual = 9.56281e-06, No Iterations 0
smoothSolver:  Solving for k, Initial residual = 0.0104853, Final residual = 0.000935541, No Iterations 5
ExecutionTime = 0.049587 s  ClockTime = 0 s

Time = 20s

smoothSolver:  Solving for Ux, Initial residual = 0.00174874, Final residual = 0.000132522, No Iterations 5
smoothSolver:  Solving for Uy, Initial residual = 0.158058, Final residual = 0.0153499, No Iterations 3
Pressure gradient source: uncorrected Ubar = 1.00018, pressure gradient = 0.0213478
GAMG:  Solving for p, Initial residual = 0.135536, Final residual = 0.0122504, No Iterations 6
time step continuity errors : sum local = 5.24382e-06, global = -4.10175e-18, cumulative = 8.95672e-18
Pressure gradient source: uncorrected Ubar = 1.00002, pressure gradient = 0.026437
smoothSolver:  Solving for omega, Initial residual = 9.5699e-06, Final residual = 9.5699e-06, No Iterations 0
smoothSolver:  Solving for k, Initial residual = 0.0104457, Final residual = 0.000764441, No Iterations 5
ExecutionTime = 0.051666 s  ClockTime = 0 s

Time = 21s

smoothSolver:  Solving for Ux, Initial residual = 0.0015726, Final residual = 0.000119922, No Iterations 5
smoothSolver:  Solving for Uy, Initial residual = 0.154907, Final residual = 0.00816025, No Iterations 4
Pressure gradient source: uncorrected Ubar = 1.00016, pressure gradient = 0.0214751
GAMG:  Solving for p, Initial residual = 0.139991, Final residual = 0.0130505, No Iterations 5
time step continuity errors : sum local = 4.4927e-06, global = -7.33107e-19, cumulative = 8.22362e-18
Pressure gradient source: uncorrected Ubar = 1.00002, pressure gradient = 0.0259469
smoothSolver:  Solving for omega, Initial residual = 9.57581e-06, Final residual = 9.57581e-06, No Iterations 0
smoothSolver:  Solving for k, Initial residual = 0.0104037, Final residual = 0.000637248, No Iterations 5
ExecutionTime = 0.053612 s  ClockTime = 0 s

Time = 22s

smoothSolver:  Solving for Ux, Initial residual = 0.0014201, Final residual = 0.000108817, No Iterations 5
smoothSolver:  Solving for Uy, Initial residual = 0.157742, Final residual = 0.00900718, No Iterations 4
Pressure gradient source: uncorrected Ubar = 1.00014, pressure gradient = 0.0215459
GAMG:  Solving for p, Initial residual = 0.134273, Final residual = 0.0106708, No Iterations 5
time step continuity errors : sum local = 3.0448e-06, global = -8.61677e-19, cumulative = 7.36194e-18
Pressure gradient source: uncorrected Ubar = 1.00001, pressure gradient = 0.0255179
smoothSolver:  Solving for omega, Initial residual = 9.58089e-06, Final residual = 9.58089e-06, No Iterations 0
smoothSolver:  Solving for k, Initial residual = 0.0104345, Final residual = 0.000806616, No Iterations 5
ExecutionTime = 0.055849 s  ClockTime = 0 s

Time = 23s

smoothSolver:  Solving for Ux, Initial residual = 0.00128471, Final residual = 9.94197e-05, No Iterations 5
smoothSolver:  Solving for Uy, Initial residual = 0.162329, Final residual = 0.00965609, No Iterations 4
Pressure gradient source: uncorrected Ubar = 1.00012, pressure gradient = 0.0215992
GAMG:  Solving for p, Initial residual = 0.125454, Final residual = 0.00888013, No Iterations 4
time step continuity errors : sum local = 2.12027e-06, global = 1.2188e-18, cumulative = 8.58074e-18
Pressure gradient source: uncorrected Ubar = 1.00001, pressure gradient = 0.0251409
smoothSolver:  Solving for omega, Initial residual = 9.58475e-06, Final residual = 9.58475e-06, No Iterations 0
smoothSolver:  Solving for k, Initial residual = 0.0104438, Final residual = 0.000858082, No Iterations 5
ExecutionTime = 0.057893 s  ClockTime = 0 s

Time = 24s

smoothSolver:  Solving for Ux, Initial residual = 0.00116979, Final residual = 9.09028e-05, No Iterations 5
smoothSolver:  Solving for Uy, Initial residual = 0.172997, Final residual = 0.0107673, No Iterations 4
Pressure gradient source: uncorrected Ubar = 1.00011, pressure gradient = 0.0216471
GAMG:  Solving for p, Initial residual = 0.123568, Final residual = 0.00514501, No Iterations 4
time step continuity errors : sum local = 1.06288e-06, global = -4.47722e-18, cumulative = 4.10352e-18
Pressure gradient source: uncorrected Ubar = 1.00001, pressure gradient = 0.0248093
smoothSolver:  Solving for omega, Initial residual = 9.58845e-06, Final residual = 9.58845e-06, No Iterations 0
smoothSolver:  Solving for k, Initial residual = 0.010419, Final residual = 0.000734479, No Iterations 5
ExecutionTime = 0.059867 s  ClockTime = 0 s

Time = 25s

smoothSolver:  Solving for Ux, Initial residual = 0.00106914, Final residual = 8.35898e-05, No Iterations 5
smoothSolver:  Solving for Uy, Initial residual = 0.183301, Final residual = 0.0113441, No Iterations 4
Pressure gradient source: uncorrected Ubar = 1.0001, pressure gradient = 0.0216873
GAMG:  Solving for p, Initial residual = 0.114702, Final residual = 0.00272503, No Iterations 4
time step continuity errors : sum local = 4.68596e-07, global = -4.00765e-18, cumulative = 9.58653e-20
Pressure gradient source: uncorrected Ubar = 1.00001, pressure gradient = 0.0245171
smoothSolver:  Solving for omega, Initial residual = 9.59146e-06, Final residual = 9.59146e-06, No Iterations 0
smoothSolver:  Solving for k, Initial residual = 0.0104181, Final residual = 0.000718114, No Iterations 5
ExecutionTime = 0.061786 s  ClockTime = 0 s

Time = 26s

smoothSolver:  Solving for Ux, Initial residual = 0.000982139, Final residual = 7.68274e-05, No Iterations 5
smoothSolver:  Solving for Uy, Initial residual = 0.182393, Final residual = 0.0113903, No Iterations 4
Pressure gradient source: uncorrected Ubar = 1.00009, pressure gradient = 0.021717
GAMG:  Solving for p, Initial residual = 0.106014, Final residual = 0.00396824, No Iterations 4
time step continuity errors : sum local = 6.13765e-07, global = 5.65553e-19, cumulative = 6.61418e-19
Pressure gradient source: uncorrected Ubar = 1.00001, pressure gradient = 0.0242586
smoothSolver:  Solving for omega, Initial residual = 9.59378e-06, Final residual = 9.59378e-06, No Iterations 0
smoothSolver:  Solving for k, Initial residual = 0.0104429, Final residual = 0.000839055, No Iterations 5
ExecutionTime = 0.063692 s  ClockTime = 0 s

Time = 27s

smoothSolver:  Solving for Ux, Initial residual = 0.000904359, Final residual = 7.09022e-05, No Iterations 5
smoothSolver:  Solving for Uy, Initial residual = 0.173468, Final residual = 0.0109446, No Iterations 4
Pressure gradient source: uncorrected Ubar = 1.00008, pressure gradient = 0.0217352
GAMG:  Solving for p, Initial residual = 0.0985012, Final residual = 0.00853584, No Iterations 4
time step continuity errors : sum local = 1.18106e-06, global = -1.59922e-18, cumulative = -9.37799e-19
Pressure gradient source: uncorrected Ubar = 1.00001, pressure gradient = 0.0240286
smoothSolver:  Solving for omega, Initial residual = 9.59613e-06, Final residual = 9.59613e-06, No Iterations 0
smoothSolver:  Solving for k, Initial residual = 0.0104239, Final residual = 0.000738328, No Iterations 5
ExecutionTime = 0.065587 s  ClockTime = 0 s

Time = 28s

smoothSolver:  Solving for Ux, Initial residual = 0.000833973, Final residual = 6.54421e-05, No Iterations 5
smoothSolver:  Solving for Uy, Initial residual = 0.159827, Final residual = 0.0104211, No Iterations 4
Pressure gradient source: uncorrected Ubar = 1.00007, pressure gradient = 0.0217565
GAMG:  Solving for p, Initial residual = 0.0867309, Final residual = 0.00729358, No Iterations 5
time step continuity errors : sum local = 9.76393e-07, global = 6.99041e-19, cumulative = -2.38758e-19
Pressure gradient source: uncorrected Ubar = 1.00001, pressure gradient = 0.0238244
smoothSolver:  Solving for omega, Initial residual = 9.5973e-06, Final residual = 9.5973e-06, No Iterations 0
smoothSolver:  Solving for k, Initial residual = 0.0104104, Final residual = 0.000672997, No Iterations 5
ExecutionTime = 0.067525 s  ClockTime = 0 s

Time = 29s

smoothSolver:  Solving for Ux, Initial residual = 0.000770421, Final residual = 6.05769e-05, No Iterations 5
smoothSolver:  Solving for Uy, Initial residual = 0.161969, Final residual = 0.0105917, No Iterations 4
Pressure gradient source: uncorrected Ubar = 1.00006, pressure gradient = 0.0217695
GAMG:  Solving for p, Initial residual = 0.0774791, Final residual = 0.00688268, No Iterations 5
time step continuity errors : sum local = 8.24757e-07, global = 1.10259e-19, cumulative = -1.28499e-19
Pressure gradient source: uncorrected Ubar = 1.00001, pressure gradient = 0.0236422
smoothSolver:  Solving for omega, Initial residual = 9.59989e-06, Final residual = 9.59989e-06, No Iterations 0
smoothSolver:  Solving for k, Initial residual = 0.0104123, Final residual = 0.000712129, No Iterations 5
ExecutionTime = 0.069551 s  ClockTime = 0 s

Time = 30s

smoothSolver:  Solving for Ux, Initial residual = 0.000712567, Final residual = 5.60669e-05, No Iterations 5
smoothSolver:  Solving for Uy, Initial residual = 0.158191, Final residual = 0.0102622, No Iterations 4
Pressure gradient source: uncorrected Ubar = 1.00006, pressure gradient = 0.021778
GAMG:  Solving for p, Initial residual = 0.064846, Final residual = 0.00611368, No Iterations 5
time step continuity errors : sum local = 6.48636e-07, global = -1.43318e-18, cumulative = -1.56168e-18
Pressure gradient source: uncorrected Ubar = 1.00001, pressure gradient = 0.023479
smoothSolver:  Solving for omega, Initial residual = 9.6022e-06, Final residual = 9.6022e-06, No Iterations 0
smoothSolver:  Solving for k, Initial residual = 0.0104548, Final residual = 0.000897023, No Iterations 5
ExecutionTime = 0.071702 s  ClockTime = 0 s

Time = 31s

smoothSolver:  Solving for Ux, Initial residual = 0.000660627, Final residual = 5.20577e-05, No Iterations 5
smoothSolver:  Solving for Uy, Initial residual = 0.14576, Final residual = 0.00928374, No Iterations 4
Pressure gradient source: uncorrected Ubar = 1.00005, pressure gradient = 0.0217863
GAMG:  Solving for p, Initial residual = 0.0589741, Final residual = 0.0055682, No Iterations 5
time step continuity errors : sum local = 5.43939e-07, global = 2.51559e-18, cumulative = 9.53917e-19
Pressure gradient source: uncorrected Ubar = 1, pressure gradient = 0.0233329
smoothSolver:  Solving for omega, Initial residual = 9.60378e-06, Final residual = 9.60378e-06, No Iterations 0
smoothSolver:  Solving for k, Initial residual = 0.0104648, Final residual = 0.00088791, No Iterations 5
ExecutionTime = 0.07379 s  ClockTime = 0 s

Time = 32s

smoothSolver:  Solving for Ux, Initial residual = 0.000614077, Final residual = 4.83665e-05, No Iterations 5
smoothSolver:  Solving for Uy, Initial residual = 0.129222, Final residual = 0.00802885, No Iterations 4
Pressure gradient source: uncorrected Ubar = 1.00005, pressure gradient = 0.0217919
GAMG:  Solving for p, Initial residual = 0.0563724, Final residual = 0.00460777, No Iterations 5
time step continuity errors : sum local = 4.16439e-07, global = 3.9059e-19, cumulative = 1.34451e-18
Pressure gradient source: uncorrected Ubar = 1, pressure gradient = 0.0232017
smoothSolver:  Solving for omega, Initial residual = 9.60516e-06, Final residual = 9.60516e-06, No Iterations 0
smoothSolver:  Solving for k, Initial residual = 0.0104237, Final residual = 0.000702893, No Iterations 5
ExecutionTime = 0.075843 s  ClockTime = 0 s

Time = 33s

smoothSolver:  Solving for Ux, Initial residual = 0.000571646, Final residual = 4.51254e-05, No Iterations 5
smoothSolver:  Solving for Uy, Initial residual = 0.110972, Final residual = 0.00688186, No Iterations 4
Pressure gradient source: uncorrected Ubar = 1.00004, pressure gradient = 0.0217977
GAMG:  Solving for p, Initial residual = 0.0531348, Final residual = 0.00483009, No Iterations 4
time step continuity errors : sum local = 4.08978e-07, global = -5.00507e-18, cumulative = -3.66057e-18
Pressure gradient source: uncorrected Ubar = 1, pressure gradient = 0.0230838
smoothSolver:  Solving for omega, Initial residual = 9.60578e-06, Final residual = 9.60578e-06, No Iterations 0
smoothSolver:  Solving for k, Initial residual = 0.0104259, Final residual = 0.000718701, No Iterations 5
ExecutionTime = 0.077813 s  ClockTime = 0 s

Time = 34s

smoothSolver:  Solving for Ux, Initial residual = 0.000532908, Final residual = 4.20943e-05, No Iterations 5
smoothSolver:  Solving for Uy, Initial residual = 0.0944774, Final residual = 0.00554454, No Iterations 4
Pressure gradient source: uncorrected Ubar = 1.00004, pressure gradient = 0.0218007
GAMG:  Solving for p, Initial residual = 0.0520434, Final residual = 0.0050297, No Iterations 4
time step continuity errors : sum local = 3.88972e-07, global = -4.65484e-18, cumulative = -8.31541e-18
Pressure gradient source: uncorrected Ubar = 1, pressure gradient = 0.0229775
smoothSolver:  Solving for omega, Initial residual = 9.60681e-06, Final residual = 9.60681e-06, No Iterations 0
smoothSolver:  Solving for k, Initial residual = 0.0104648, Final residual = 0.000903906, No Iterations 5
ExecutionTime = 0.079723 s  ClockTime = 0 s

Time = 35s

smoothSolver:  Solving for Ux, Initial residual = 0.000497358, Final residual = 3.94099e-05, No Iterations 5
smoothSolver:  Solving for Uy, Initial residual = 0.0847363, Final residual = 0.00527547, No Iterations 4
Pressure gradient source: uncorrected Ubar = 1.00004, pressure gradient = 0.0218024
GAMG:  Solving for p, Initial residual = 0.0516647, Final residual = 0.00362206, No Iterations 5
time step continuity errors : sum local = 2.5338e-07, global = 6.06639e-18, cumulative = -2.24902e-18
Pressure gradient source: uncorrected Ubar = 1, pressure gradient = 0.0228815
smoothSolver:  Solving for omega, Initial residual = 9.60797e-06, Final residual = 9.60797e-06, No Iterations 0
smoothSolver:  Solving for k, Initial residual = 0.0104647, Final residual = 0.000846011, No Iterations 5
ExecutionTime = 0.081675 s  ClockTime = 0 s

Time = 36s

smoothSolver:  Solving for Ux, Initial residual = 0.00046507, Final residual = 3.69257e-05, No Iterations 5
smoothSolver:  Solving for Uy, Initial residual = 0.0830382, Final residual = 0.00577268, No Iterations 4
Pressure gradient source: uncorrected Ubar = 1.00003, pressure gradient = 0.0218042
GAMG:  Solving for p, Initial residual = 0.0508392, Final residual = 0.00459077, No Iterations 4
time step continuity errors : sum local = 2.70267e-07, global = -1.08322e-17, cumulative = -1.30813e-17
Pressure gradient source: uncorrected Ubar = 1, pressure gradient = 0.0227947
smoothSolver:  Solving for omega, Initial residual = 9.60921e-06, Final residual = 9.60921e-06, No Iterations 0
smoothSolver:  Solving for k, Initial residual = 0.0104392, Final residual = 0.00069288, No Iterations 5
ExecutionTime = 0.083637 s  ClockTime = 0 s

Time = 37s

smoothSolver:  Solving for Ux, Initial residual = 0.000435041, Final residual = 3.46409e-05, No Iterations 5
smoothSolver:  Solving for Uy, Initial residual = 0.0811982, Final residual = 0.00563057, No Iterations 4
Pressure gradient source: uncorrected Ubar = 1.00003, pressure gradient = 0.0218052
GAMG:  Solving for p, Initial residual = 0.0491063, Final residual = 0.00389615, No Iterations 4
time step continuity errors : sum local = 2.08912e-07, global = 1.44293e-18, cumulative = -1.16383e-17
Pressure gradient source: uncorrected Ubar = 1, pressure gradient = 0.0227161
smoothSolver:  Solving for omega, Initial residual = 9.61005e-06, Final residual = 9.61005e-06, No Iterations 0
smoothSolver:  Solving for k, Initial residual = 0.0104354, Final residual = 0.00076073, No Iterations 5
ExecutionTime = 0.085626 s  ClockTime = 0 s

Time = 38s

smoothSolver:  Solving for Ux, Initial residual = 0.000408002, Final residual = 3.25749e-05, No Iterations 5
smoothSolver:  Solving for Uy, Initial residual = 0.0819718, Final residual = 0.00568523, No Iterations 4
Pressure gradient source: uncorrected Ubar = 1.00003, pressure gradient = 0.0218052
GAMG:  Solving for p, Initial residual = 0.0481684, Final residual = 0.00330059, No Iterations 4
time step continuity errors : sum local = 1.60349e-07, global = 2.68318e-18, cumulative = -8.95516e-18
Pressure gradient source: uncorrected Ubar = 1, pressure gradient = 0.0226447
smoothSolver:  Solving for omega, Initial residual = 9.61075e-06, Final residual = 9.61075e-06, No Iterations 0
smoothSolver:  Solving for k, Initial residual = 0.0104744, Final residual = 0.00091205, No Iterations 5
ExecutionTime = 0.087709 s  ClockTime = 0 s

Time = 39s

smoothSolver:  Solving for Ux, Initial residual = 0.000383437, Final residual = 3.06562e-05, No Iterations 5
smoothSolver:  Solving for Uy, Initial residual = 0.08217, Final residual = 0.0057052, No Iterations 4
Pressure gradient source: uncorrected Ubar = 1.00003, pressure gradient = 0.0218046
GAMG:  Solving for p, Initial residual = 0.0465697, Final residual = 0.00302414, No Iterations 4
time step continuity errors : sum local = 1.34318e-07, global = -3.42532e-18, cumulative = -1.23805e-17
Pressure gradient source: uncorrected Ubar = 1, pressure gradient = 0.0225798
smoothSolver:  Solving for omega, Initial residual = 9.61138e-06, Final residual = 9.61138e-06, No Iterations 0
smoothSolver:  Solving for k, Initial residual = 0.0104636, Final residual = 0.000805031, No Iterations 5
ExecutionTime = 0.0898 s  ClockTime = 0 s

Time = 40s

smoothSolver:  Solving for Ux, Initial residual = 0.000360989, Final residual = 2.89549e-05, No Iterations 5
smoothSolver:  Solving for Uy, Initial residual = 0.0814235, Final residual = 0.00573679, No Iterations 4
Pressure gradient source: uncorrected Ubar = 1.00002, pressure gradient = 0.0218043
GAMG:  Solving for p, Initial residual = 0.0449933, Final residual = 0.00301422, No Iterations 4
time step continuity errors : sum local = 1.24221e-07, global = -5.74336e-18, cumulative = -1.81238e-17
Pressure gradient source: uncorrected Ubar = 1, pressure gradient = 0.0225206
smoothSolver:  Solving for omega, Initial residual = 9.61194e-06, Final residual = 9.61194e-06, No Iterations 0
smoothSolver:  Solving for k, Initial residual = 0.0104546, Final residual = 0.000754402, No Iterations 5
ExecutionTime = 0.091832 s  ClockTime = 0 s

Time = 41s

smoothSolver:  Solving for Ux, Initial residual = 0.000340446, Final residual = 2.74114e-05, No Iterations 5
smoothSolver:  Solving for Uy, Initial residual = 0.0775258, Final residual = 0.00552367, No Iterations 4
Pressure gradient source: uncorrected Ubar = 1.00002, pressure gradient = 0.0218035
GAMG:  Solving for p, Initial residual = 0.0419778, Final residual = 0.00238107, No Iterations 4
time step continuity errors : sum local = 9.47556e-08, global = 6.00916e-18, cumulative = -1.21147e-17
Pressure gradient source: uncorrected Ubar = 1, pressure gradient = 0.0224667
smoothSolver:  Solving for omega, Initial residual = 9.61239e-06, Final residual = 9.61239e-06, No Iterations 0
smoothSolver:  Solving for k, Initial residual = 0.0104467, Final residual = 0.000779861, No Iterations 5
ExecutionTime = 0.093803 s  ClockTime = 0 s

Time = 42s

smoothSolver:  Solving for Ux, Initial residual = 0.000321374, Final residual = 2.599e-05, No Iterations 5
smoothSolver:  Solving for Uy, Initial residual = 0.0739, Final residual = 0.00526898, No Iterations 4
Pressure gradient source: uncorrected Ubar = 1.00002, pressure gradient = 0.0218024
GAMG:  Solving for p, Initial residual = 0.0395693, Final residual = 0.00281067, No Iterations 4
time step continuity errors : sum local = 1.02604e-07, global = 5.13506e-18, cumulative = -6.97961e-18
Pressure gradient source: uncorrected Ubar = 1, pressure gradient = 0.0224175
smoothSolver:  Solving for omega, Initial residual = 9.6129e-06, Final residual = 9.6129e-06, No Iterations 0
smoothSolver:  Solving for k, Initial residual = 0.010442, Final residual = 0.000764495, No Iterations 5
ExecutionTime = 0.09571 s  ClockTime = 0 s

Time = 43s

smoothSolver:  Solving for Ux, Initial residual = 0.00030394, Final residual = 2.47111e-05, No Iterations 5
smoothSolver:  Solving for Uy, Initial residual = 0.0680427, Final residual = 0.00495502, No Iterations 4
Pressure gradient source: uncorrected Ubar = 1.00002, pressure gradient = 0.0218011
GAMG:  Solving for p, Initial residual = 0.0364555, Final residual = 0.00356347, No Iterations 3
time step continuity errors : sum local = 1.21581e-07, global = 9.88644e-18, cumulative = 2.90683e-18
Pressure gradient source: uncorrected Ubar = 1, pressure gradient = 0.0223724
smoothSolver:  Solving for omega, Initial residual = 9.61332e-06, Final residual = 9.61332e-06, No Iterations 0
smoothSolver:  Solving for k, Initial residual = 0.0104139, Final residual = 0.00066919, No Iterations 5
ExecutionTime = 0.097577 s  ClockTime = 0 s

Time = 44s

smoothSolver:  Solving for Ux, Initial residual = 0.000287961, Final residual = 2.35584e-05, No Iterations 5
smoothSolver:  Solving for Uy, Initial residual = 0.0615481, Final residual = 0.00451369, No Iterations 4
Pressure gradient source: uncorrected Ubar = 1.00002, pressure gradient = 0.0217998
GAMG:  Solving for p, Initial residual = 0.0327918, Final residual = 0.0026729, No Iterations 4
time step continuity errors : sum local = 8.52011e-08, global = 6.04494e-19, cumulative = 3.51132e-18
Pressure gradient source: uncorrected Ubar = 1, pressure gradient = 0.022331
smoothSolver:  Solving for omega, Initial residual = 9.61381e-06, Final residual = 9.61381e-06, No Iterations 0
smoothSolver:  Solving for k, Initial residual = 0.0104374, Final residual = 0.000845755, No Iterations 5
ExecutionTime = 0.099532 s  ClockTime = 0 s

Time = 45s

smoothSolver:  Solving for Ux, Initial residual = 0.00027322, Final residual = 2.25065e-05, No Iterations 5
smoothSolver:  Solving for Uy, Initial residual = 0.0561666, Final residual = 0.00423792, No Iterations 4
Pressure gradient source: uncorrected Ubar = 1.00002, pressure gradient = 0.0217981
GAMG:  Solving for p, Initial residual = 0.0311304, Final residual = 0.0025004, No Iterations 3
time step continuity errors : sum local = 7.89432e-08, global = -4.02354e-19, cumulative = 3.10897e-18
Pressure gradient source: uncorrected Ubar = 1, pressure gradient = 0.022293
smoothSolver:  Solving for omega, Initial residual = 9.61401e-06, Final residual = 9.61401e-06, No Iterations 0
smoothSolver:  Solving for k, Initial residual = 0.0104322, Final residual = 0.000832131, No Iterations 5
ExecutionTime = 0.101439 s  ClockTime = 0 s

Time = 46s

smoothSolver:  Solving for Ux, Initial residual = 0.000259748, Final residual = 2.15533e-05, No Iterations 5
smoothSolver:  Solving for Uy, Initial residual = 0.0519809, Final residual = 0.00385334, No Iterations 4
Pressure gradient source: uncorrected Ubar = 1.00002, pressure gradient = 0.0217965
GAMG:  Solving for p, Initial residual = 0.0290241, Final residual = 0.00261391, No Iterations 3
time step continuity errors : sum local = 7.62997e-08, global = 5.83769e-18, cumulative = 8.94666e-18
Pressure gradient source: uncorrected Ubar = 1, pressure gradient = 0.0222581
smoothSolver:  Solving for omega, Initial residual = 9.61435e-06, Final residual = 9.61435e-06, No Iterations 0
smoothSolver:  Solving for k, Initial residual = 0.0104136, Final residual = 0.000787607, No Iterations 5
ExecutionTime = 0.103395 s  ClockTime = 0 s

Time = 47s

smoothSolver:  Solving for Ux, Initial residual = 0.000247755, Final residual = 2.06969e-05, No Iterations 5
smoothSolver:  Solving for Uy, Initial residual = 0.0476534, Final residual = 0.0035924, No Iterations 4
Pressure gradient source: uncorrected Ubar = 1.00001, pressure gradient = 0.0217949
GAMG:  Solving for p, Initial residual = 0.0275127, Final residual = 0.00228493, No Iterations 3
time step continuity errors : sum local = 6.66472e-08, global = 3.50337e-18, cumulative = 1.245e-17
Pressure gradient source: uncorrected Ubar = 1, pressure gradient = 0.022226
smoothSolver:  Solving for omega, Initial residual = 9.61455e-06, Final residual = 9.61455e-06, No Iterations 0
smoothSolver:  Solving for k, Initial residual = 0.0104139, Final residual = 0.000852577, No Iterations 5
ExecutionTime = 0.10553 s  ClockTime = 0 s

Time = 48s

smoothSolver:  Solving for Ux, Initial residual = 0.0002368, Final residual = 1.99487e-05, No Iterations 5
smoothSolver:  Solving for Uy, Initial residual = 0.0441455, Final residual = 0.00326438, No Iterations 4
Pressure gradient source: uncorrected Ubar = 1.00001, pressure gradient = 0.0217932
GAMG:  Solving for p, Initial residual = 0.0261071, Final residual = 0.00206857, No Iterations 3
time step continuity errors : sum local = 5.48577e-08, global = 1.43773e-18, cumulative = 1.38878e-17
Pressure gradient source: uncorrected Ubar = 1, pressure gradient = 0.0221963
smoothSolver:  Solving for omega, Initial residual = 9.61485e-06, Final residual = 9.61485e-06, No Iterations 0
smoothSolver:  Solving for k, Initial residual = 0.0103958, Final residual = 0.000749046, No Iterations 5
ExecutionTime = 0.107555 s  ClockTime = 0 s

Time = 49s

smoothSolver:  Solving for Ux, Initial residual = 0.000226788, Final residual = 1.92977e-05, No Iterations 5
smoothSolver:  Solving for Uy, Initial residual = 0.0417181, Final residual = 0.00315197, No Iterations 4
Pressure gradient source: uncorrected Ubar = 1.00001, pressure gradient = 0.0217915
GAMG:  Solving for p, Initial residual = 0.0250532, Final residual = 0.00191961, No Iterations 3
time step continuity errors : sum local = 5.08059e-08, global = -1.33417e-17, cumulative = 5.46084e-19
Pressure gradient source: uncorrected Ubar = 1, pressure gradient = 0.0221689
smoothSolver:  Solving for omega, Initial residual = 9.61591e-06, Final residual = 9.61591e-06, No Iterations 0
smoothSolver:  Solving for k, Initial residual = 0.0103972, Final residual = 0.000761227, No Iterations 5
ExecutionTime = 0.109511 s  ClockTime = 0 s

Time = 50s

smoothSolver:  Solving for Ux, Initial residual = 0.000217688, Final residual = 1.87266e-05, No Iterations 5
smoothSolver:  Solving for Uy, Initial residual = 0.0395176, Final residual = 0.00292969, No Iterations 4
Pressure gradient source: uncorrected Ubar = 1.00001, pressure gradient = 0.0217898
GAMG:  Solving for p, Initial residual = 0.0241731, Final residual = 0.00177177, No Iterations 3
time step continuity errors : sum local = 4.49382e-08, global = -2.09693e-18, cumulative = -1.55084e-18
Pressure gradient source: uncorrected Ubar = 1, pressure gradient = 0.0221436
smoothSolver:  Solving for omega, Initial residual = 9.6152e-06, Final residual = 9.6152e-06, No Iterations 0
smoothSolver:  Solving for k, Initial residual = 0.010395, Final residual = 0.000793365, No Iterations 5
ExecutionTime = 0.111389 s  ClockTime = 0 s

Time = 51s

smoothSolver:  Solving for Ux, Initial residual = 0.000209456, Final residual = 1.82466e-05, No Iterations 5
smoothSolver:  Solving for Uy, Initial residual = 0.0374697, Final residual = 0.0027802, No Iterations 4
Pressure gradient source: uncorrected Ubar = 1.00001, pressure gradient = 0.0217881
GAMG:  Solving for p, Initial residual = 0.0232991, Final residual = 0.00166322, No Iterations 3
time step continuity errors : sum local = 3.99322e-08, global = -2.82096e-18, cumulative = -4.3718e-18
Pressure gradient source: uncorrected Ubar = 1, pressure gradient = 0.0221201
smoothSolver:  Solving for omega, Initial residual = 9.61535e-06, Final residual = 9.61535e-06, No Iterations 0
smoothSolver:  Solving for k, Initial residual = 0.0103758, Final residual = 0.000724476, No Iterations 5
ExecutionTime = 0.113255 s  ClockTime = 0 s

Time = 52s

smoothSolver:  Solving for Ux, Initial residual = 0.0002021, Final residual = 1.78421e-05, No Iterations 5
smoothSolver:  Solving for Uy, Initial residual = 0.0361356, Final residual = 0.00266045, No Iterations 4
Pressure gradient source: uncorrected Ubar = 1.00001, pressure gradient = 0.0217864
GAMG:  Solving for p, Initial residual = 0.0226638, Final residual = 0.00160712, No Iterations 3
time step continuity errors : sum local = 3.64803e-08, global = 5.40925e-18, cumulative = 1.03745e-18
Pressure gradient source: uncorrected Ubar = 1, pressure gradient = 0.0220984
smoothSolver:  Solving for omega, Initial residual = 9.61552e-06, Final residual = 9.61552e-06, No Iterations 0
smoothSolver:  Solving for k, Initial residual = 0.0103563, Final residual = 0.000748454, No Iterations 5
ExecutionTime = 0.115122 s  ClockTime = 0 s

Time = 53s

smoothSolver:  Solving for Ux, Initial residual = 0.000195521, Final residual = 1.75127e-05, No Iterations 5
smoothSolver:  Solving for Uy, Initial residual = 0.0349894, Final residual = 0.00255902, No Iterations 4
Pressure gradient source: uncorrected Ubar = 1.00001, pressure gradient = 0.0217847
GAMG:  Solving for p, Initial residual = 0.0222098, Final residual = 0.00161378, No Iterations 3
time step continuity errors : sum local = 3.67763e-08, global = 4.24031e-18, cumulative = 5.27776e-18
Pressure gradient source: uncorrected Ubar = 1, pressure gradient = 0.0220782
smoothSolver:  Solving for omega, Initial residual = 9.61575e-06, Final residual = 9.61575e-06, No Iterations 0
smoothSolver:  Solving for k, Initial residual = 0.0103478, Final residual = 0.00073336, No Iterations 5
ExecutionTime = 0.117001 s  ClockTime = 0 s

Time = 54s

smoothSolver:  Solving for Ux, Initial residual = 0.000189776, Final residual = 1.72361e-05, No Iterations 5
smoothSolver:  Solving for Uy, Initial residual = 0.0343834, Final residual = 0.00247661, No Iterations 4
Pressure gradient source: uncorrected Ubar = 1.00001, pressure gradient = 0.021783
GAMG:  Solving for p, Initial residual = 0.0214336, Final residual = 0.00167968, No Iterations 3
time step continuity errors : sum local = 3.86154e-08, global = -7.84445e-18, cumulative = -2.56669e-18
Pressure gradient source: uncorrected Ubar = 1, pressure gradient = 0.0220594
smoothSolver:  Solving for omega, Initial residual = 9.61569e-06, Final residual = 9.61569e-06, No Iterations 0
smoothSolver:  Solving for k, Initial residual = 0.0103552, Final residual = 0.000808753, No Iterations 5
ExecutionTime = 0.118955 s  ClockTime = 0 s

Time = 55s

smoothSolver:  Solving for Ux, Initial residual = 0.000184899, Final residual = 1.6955e-05, No Iterations 5
smoothSolver:  Solving for Uy, Initial residual = 0.0339248, Final residual = 0.0024053, No Iterations 4
Pressure gradient source: uncorrected Ubar = 1.00001, pressure gradient = 0.0217813
GAMG:  Solving for p, Initial residual = 0.0210389, Final residual = 0.00143912, No Iterations 4
time step continuity errors : sum local = 3.05044e-08, global = 3.99223e-18, cumulative = 1.42554e-18
Pressure gradient source: uncorrected Ubar = 1, pressure gradient = 0.0220419
smoothSolver:  Solving for omega, Initial residual = 9.61574e-06, Final residual = 9.61574e-06, No Iterations 0
smoothSolver:  Solving for k, Initial residual = 0.0103385, Final residual = 0.000790815, No Iterations 5
ExecutionTime = 0.121061 s  ClockTime = 0 s

Time = 56s

smoothSolver:  Solving for Ux, Initial residual = 0.000180282, Final residual = 1.66681e-05, No Iterations 5
smoothSolver:  Solving for Uy, Initial residual = 0.0327369, Final residual = 0.00218546, No Iterations 4
Pressure gradient source: uncorrected Ubar = 1.00001, pressure gradient = 0.0217797
GAMG:  Solving for p, Initial residual = 0.0205058, Final residual = 0.0014827, No Iterations 4
time step continuity errors : sum local = 2.87198e-08, global = -1.58637e-18, cumulative = -1.60829e-19
Pressure gradient source: uncorrected Ubar = 1, pressure gradient = 0.0220256
smoothSolver:  Solving for omega, Initial residual = 9.61577e-06, Final residual = 9.61577e-06, No Iterations 0
smoothSolver:  Solving for k, Initial residual = 0.0103305, Final residual = 0.000794463, No Iterations 5
ExecutionTime = 0.123113 s  ClockTime = 0 s

Time = 57s

smoothSolver:  Solving for Ux, Initial residual = 0.000175849, Final residual = 1.63863e-05, No Iterations 5
smoothSolver:  Solving for Uy, Initial residual = 0.0322715, Final residual = 0.00210751, No Iterations 4
Pressure gradient source: uncorrected Ubar = 1.00001, pressure gradient = 0.0217781
GAMG:  Solving for p, Initial residual = 0.0202574, Final residual = 0.00110644, No Iterations 5
time step continuity errors : sum local = 2.12176e-08, global = 1.32169e-17, cumulative = 1.30561e-17
Pressure gradient source: uncorrected Ubar = 1, pressure gradient = 0.0220103
smoothSolver:  Solving for omega, Initial residual = 9.61581e-06, Final residual = 9.61581e-06, No Iterations 0
smoothSolver:  Solving for k, Initial residual = 0.0103207, Final residual = 0.000760494, No Iterations 5
ExecutionTime = 0.125171 s  ClockTime = 0 s

Time = 58s

smoothSolver:  Solving for Ux, Initial residual = 0.000171524, Final residual = 1.61048e-05, No Iterations 5
smoothSolver:  Solving for Uy, Initial residual = 0.0305646, Final residual = 0.0019433, No Iterations 4
Pressure gradient source: uncorrected Ubar = 1.00001, pressure gradient = 0.0217765
GAMG:  Solving for p, Initial residual = 0.0198701, Final residual = 0.00196633, No Iterations 3
time step continuity errors : sum local = 3.70434e-08, global = 3.00126e-18, cumulative = 1.60574e-17
Pressure gradient source: uncorrected Ubar = 1, pressure gradient = 0.0219961
smoothSolver:  Solving for omega, Initial residual = 9.61583e-06, Final residual = 9.61583e-06, No Iterations 0
smoothSolver:  Solving for k, Initial residual = 0.0103336, Final residual = 0.000896152, No Iterations 5
ExecutionTime = 0.127162 s  ClockTime = 0 s

Time = 59s

smoothSolver:  Solving for Ux, Initial residual = 0.000167294, Final residual = 1.58193e-05, No Iterations 5
smoothSolver:  Solving for Uy, Initial residual = 0.0314017, Final residual = 0.00209189, No Iterations 4
Pressure gradient source: uncorrected Ubar = 1.00001, pressure gradient = 0.021775
GAMG:  Solving for p, Initial residual = 0.0194622, Final residual = 0.00114422, No Iterations 5
time step continuity errors : sum local = 2.00196e-08, global = 3.8156e-18, cumulative = 1.9873e-17
Pressure gradient source: uncorrected Ubar = 1, pressure gradient = 0.0219828
smoothSolver:  Solving for omega, Initial residual = 9.61582e-06, Final residual = 9.61582e-06, No Iterations 0
smoothSolver:  Solving for k, Initial residual = 0.0103277, Final residual = 0.000884656, No Iterations 5
ExecutionTime = 0.129114 s  ClockTime = 0 s

Time = 60s

smoothSolver:  Solving for Ux, Initial residual = 0.000163157, Final residual = 1.55359e-05, No Iterations 5
smoothSolver:  Solving for Uy, Initial residual = 0.030587, Final residual = 0.00187559, No Iterations 4
Pressure gradient source: uncorrected Ubar = 1.00001, pressure gradient = 0.0217735
GAMG:  Solving for p, Initial residual = 0.0189804, Final residual = 0.00174465, No Iterations 4
time step continuity errors : sum local = 2.89069e-08, global = 2.9724e-18, cumulative = 2.28454e-17
Pressure gradient source: uncorrected Ubar = 1, pressure gradient = 0.0219704
smoothSolver:  Solving for omega, Initial residual = 9.61588e-06, Final residual = 9.61588e-06, No Iterations 0
smoothSolver:  Solving for k, Initial residual = 0.0102691, Final residual = 0.000676773, No Iterations 5
ExecutionTime = 0.131015 s  ClockTime = 0 s

Time = 61s

smoothSolver:  Solving for Ux, Initial residual = 0.000159113, Final residual = 1.52503e-05, No Iterations 5
smoothSolver:  Solving for Uy, Initial residual = 0.0308227, Final residual = 0.00196548, No Iterations 4
Pressure gradient source: uncorrected Ubar = 1.00001, pressure gradient = 0.021772
GAMG:  Solving for p, Initial residual = 0.0187845, Final residual = 0.00101679, No Iterations 5
time step continuity errors : sum local = 1.69217e-08, global = 3.38078e-18, cumulative = 2.62262e-17
Pressure gradient source: uncorrected Ubar = 1, pressure gradient = 0.0219587
smoothSolver:  Solving for omega, Initial residual = 9.61595e-06, Final residual = 9.61595e-06, No Iterations 0
smoothSolver:  Solving for k, Initial residual = 0.0102846, Final residual = 0.000754896, No Iterations 5
ExecutionTime = 0.132956 s  ClockTime = 0 s

Time = 62s

smoothSolver:  Solving for Ux, Initial residual = 0.000155159, Final residual = 1.49629e-05, No Iterations 5
smoothSolver:  Solving for Uy, Initial residual = 0.0293405, Final residual = 0.00181461, No Iterations 4
Pressure gradient source: uncorrected Ubar = 1.00001, pressure gradient = 0.0217706
GAMG:  Solving for p, Initial residual = 0.0181153, Final residual = 0.0016809, No Iterations 4
time step continuity errors : sum local = 2.59587e-08, global = 4.43435e-19, cumulative = 2.66696e-17
Pressure gradient source: uncorrected Ubar = 1, pressure gradient = 0.0219477
smoothSolver:  Solving for omega, Initial residual = 9.61577e-06, Final residual = 9.61577e-06, No Iterations 0
smoothSolver:  Solving for k, Initial residual = 0.0102851, Final residual = 0.000790156, No Iterations 5
ExecutionTime = 0.134927 s  ClockTime = 0 s

Time = 63s

smoothSolver:  Solving for Ux, Initial residual = 0.000151298, Final residual = 1.46745e-05, No Iterations 5
smoothSolver:  Solving for Uy, Initial residual = 0.030011, Final residual = 0.00192956, No Iterations 4
Pressure gradient source: uncorrected Ubar = 1.00001, pressure gradient = 0.0217692
GAMG:  Solving for p, Initial residual = 0.017775, Final residual = 0.00105145, No Iterations 5
time step continuity errors : sum local = 1.61671e-08, global = -4.1162e-18, cumulative = 2.25534e-17
Pressure gradient source: uncorrected Ubar = 1, pressure gradient = 0.0219374
smoothSolver:  Solving for omega, Initial residual = 9.61574e-06, Final residual = 9.61574e-06, No Iterations 0
smoothSolver:  Solving for k, Initial residual = 0.0102857, Final residual = 0.000812158, No Iterations 5
ExecutionTime = 0.137005 s  ClockTime = 0 s

Time = 64s

smoothSolver:  Solving for Ux, Initial residual = 0.000147622, Final residual = 1.43856e-05, No Iterations 5
smoothSolver:  Solving for Uy, Initial residual = 0.0284594, Final residual = 0.00176874, No Iterations 4
Pressure gradient source: uncorrected Ubar = 1.00001, pressure gradient = 0.0217678
GAMG:  Solving for p, Initial residual = 0.0172586, Final residual = 0.000802212, No Iterations 5
time step continuity errors : sum local = 1.27222e-08, global = -1.10799e-18, cumulative = 2.14454e-17
Pressure gradient source: uncorrected Ubar = 1, pressure gradient = 0.0219277
smoothSolver:  Solving for omega, Initial residual = 9.6157e-06, Final residual = 9.6157e-06, No Iterations 0
smoothSolver:  Solving for k, Initial residual = 0.0102737, Final residual = 0.000792314, No Iterations 5
ExecutionTime = 0.139093 s  ClockTime = 0 s

Time = 65s

smoothSolver:  Solving for Ux, Initial residual = 0.000144024, Final residual = 1.40971e-05, No Iterations 5
smoothSolver:  Solving for Uy, Initial residual = 0.0281496, Final residual = 0.0017974, No Iterations 4
Pressure gradient source: uncorrected Ubar = 1.00001, pressure gradient = 0.0217665
GAMG:  Solving for p, Initial residual = 0.0169367, Final residual = 0.000805972, No Iterations 5
time step continuity errors : sum local = 1.24333e-08, global = 1.66391e-18, cumulative = 2.31093e-17
Pressure gradient source: uncorrected Ubar = 1, pressure gradient = 0.0219186
smoothSolver:  Solving for omega, Initial residual = 9.61566e-06, Final residual = 9.61566e-06, No Iterations 0
smoothSolver:  Solving for k, Initial residual = 0.010255, Final residual = 0.000770715, No Iterations 5
ExecutionTime = 0.141194 s  ClockTime = 0 s

Time = 66s

smoothSolver:  Solving for Ux, Initial residual = 0.000140499, Final residual = 1.38092e-05, No Iterations 5
smoothSolver:  Solving for Uy, Initial residual = 0.0276571, Final residual = 0.00176825, No Iterations 4
Pressure gradient source: uncorrected Ubar = 1, pressure gradient = 0.0217652
GAMG:  Solving for p, Initial residual = 0.0166067, Final residual = 0.000804631, No Iterations 5
time step continuity errors : sum local = 1.2041e-08, global = -1.27734e-18, cumulative = 2.1832e-17
Pressure gradient source: uncorrected Ubar = 1, pressure gradient = 0.02191
smoothSolver:  Solving for omega, Initial residual = 9.6156e-06, Final residual = 9.6156e-06, No Iterations 0
smoothSolver:  Solving for k, Initial residual = 0.0102564, Final residual = 0.0008033, No Iterations 5
ExecutionTime = 0.143234 s  ClockTime = 0 s

Time = 67s

smoothSolver:  Solving for Ux, Initial residual = 0.000137047, Final residual = 1.35249e-05, No Iterations 5
smoothSolver:  Solving for Uy, Initial residual = 0.0271648, Final residual = 0.00172578, No Iterations 4
Pressure gradient source: uncorrected Ubar = 1, pressure gradient = 0.0217639
GAMG:  Solving for p, Initial residual = 0.0162733, Final residual = 0.000810699, No Iterations 5
time step continuity errors : sum local = 1.1757e-08, global = 1.99016e-18, cumulative = 2.38221e-17
Pressure gradient source: uncorrected Ubar = 1, pressure gradient = 0.0219019
smoothSolver:  Solving for omega, Initial residual = 9.61554e-06, Final residual = 9.61554e-06, No Iterations 0
smoothSolver:  Solving for k, Initial residual = 0.0102637, Final residual = 0.000860102, No Iterations 5
ExecutionTime = 0.145196 s  ClockTime = 0 s

Time = 68s

smoothSolver:  Solving for Ux, Initial residual = 0.000133668, Final residual = 1.32471e-05, No Iterations 5
smoothSolver:  Solving for Uy, Initial residual = 0.0266686, Final residual = 0.00168136, No Iterations 4
Pressure gradient source: uncorrected Ubar = 1, pressure gradient = 0.0217627
GAMG:  Solving for p, Initial residual = 0.0159627, Final residual = 0.000822505, No Iterations 5
time step continuity errors : sum local = 1.1554e-08, global = 8.55792e-18, cumulative = 3.23801e-17
Pressure gradient source: uncorrected Ubar = 1, pressure gradient = 0.0218942
smoothSolver:  Solving for omega, Initial residual = 9.61548e-06, Final residual = 9.61548e-06, No Iterations 0
smoothSolver:  Solving for k, Initial residual = 0.0102702, Final residual = 0.000899996, No Iterations 5
ExecutionTime = 0.147164 s  ClockTime = 0 s

Time = 69s

smoothSolver:  Solving for Ux, Initial residual = 0.000130362, Final residual = 1.29709e-05, No Iterations 5
smoothSolver:  Solving for Uy, Initial residual = 0.0262732, Final residual = 0.00164016, No Iterations 4
Pressure gradient source: uncorrected Ubar = 1, pressure gradient = 0.0217615
GAMG:  Solving for p, Initial residual = 0.0157119, Final residual = 0.000837838, No Iterations 5
time step continuity errors : sum local = 1.14012e-08, global = -3.5993e-18, cumulative = 2.87808e-17
Pressure gradient source: uncorrected Ubar = 1, pressure gradient = 0.021887
smoothSolver:  Solving for omega, Initial residual = 9.61541e-06, Final residual = 9.61541e-06, No Iterations 0
smoothSolver:  Solving for k, Initial residual = 0.0102304, Final residual = 0.000696986, No Iterations 5
ExecutionTime = 0.149141 s  ClockTime = 0 s

Time = 70s

smoothSolver:  Solving for Ux, Initial residual = 0.000127126, Final residual = 1.26965e-05, No Iterations 5
smoothSolver:  Solving for Uy, Initial residual = 0.0258637, Final residual = 0.00159874, No Iterations 4
Pressure gradient source: uncorrected Ubar = 1, pressure gradient = 0.0217604
GAMG:  Solving for p, Initial residual = 0.0154241, Final residual = 0.000853518, No Iterations 5
time step continuity errors : sum local = 1.12614e-08, global = 1.23978e-17, cumulative = 4.11785e-17
Pressure gradient source: uncorrected Ubar = 1, pressure gradient = 0.0218801
smoothSolver:  Solving for omega, Initial residual = 9.61533e-06, Final residual = 9.61533e-06, No Iterations 0
smoothSolver:  Solving for k, Initial residual = 0.0101885, Final residual = 0.000629274, No Iterations 5
ExecutionTime = 0.151066 s  ClockTime = 0 s

Time = 71s

smoothSolver:  Solving for Ux, Initial residual = 0.00012396, Final residual = 8.18553e-06, No Iterations 6
smoothSolver:  Solving for Uy, Initial residual = 0.0256077, Final residual = 0.00156405, No Iterations 4
Pressure gradient source: uncorrected Ubar = 1, pressure gradient = 0.0217967
GAMG:  Solving for p, Initial residual = 0.0633003, Final residual = 0.00591656, No Iterations 4
time step continuity errors : sum local = 6.78162e-08, global = -3.40885e-18, cumulative = 3.77697e-17
Pressure gradient source: uncorrected Ubar = 1, pressure gradient = 0.0218767
smoothSolver:  Solving for omega, Initial residual = 9.61527e-06, Final residual = 9.61527e-06, No Iterations 0
smoothSolver:  Solving for k, Initial residual = 0.0102403, Final residual = 0.000932006, No Iterations 5
ExecutionTime = 0.153102 s  ClockTime = 0 s

Time = 72s

smoothSolver:  Solving for Ux, Initial residual = 0.000120603, Final residual = 7.98035e-06, No Iterations 6
smoothSolver:  Solving for Uy, Initial residual = 0.0931673, Final residual = 0.00908334, No Iterations 3
Pressure gradient source: uncorrected Ubar = 1, pressure gradient = 0.0217821
GAMG:  Solving for p, Initial residual = 0.058919, Final residual = 0.00433066, No Iterations 5
time step continuity errors : sum local = 4.72542e-08, global = -2.23661e-18, cumulative = 3.55331e-17
Pressure gradient source: uncorrected Ubar = 1, pressure gradient = 0.0218714
smoothSolver:  Solving for omega, Initial residual = 9.61519e-06, Final residual = 9.61519e-06, No Iterations 0
smoothSolver:  Solving for k, Initial residual = 0.0102417, Final residual = 0.000879852, No Iterations 5
ExecutionTime = 0.155298 s  ClockTime = 0 s

Time = 73s

smoothSolver:  Solving for Ux, Initial residual = 0.000117402, Final residual = 7.78828e-06, No Iterations 6
smoothSolver:  Solving for Uy, Initial residual = 0.132279, Final residual = 0.0119017, No Iterations 3
Pressure gradient source: uncorrected Ubar = 1, pressure gradient = 0.0217793
GAMG:  Solving for p, Initial residual = 0.0545617, Final residual = 0.00447372, No Iterations 5
time step continuity errors : sum local = 4.09841e-08, global = 1.03152e-17, cumulative = 4.58483e-17
Pressure gradient source: uncorrected Ubar = 1, pressure gradient = 0.0218662
smoothSolver:  Solving for omega, Initial residual = 9.61506e-06, Final residual = 9.61506e-06, No Iterations 0
smoothSolver:  Solving for k, Initial residual = 0.0102097, Final residual = 0.00069731, No Iterations 5
ExecutionTime = 0.157385 s  ClockTime = 0 s

Time = 74s

smoothSolver:  Solving for Ux, Initial residual = 0.000114329, Final residual = 7.60153e-06, No Iterations 6
smoothSolver:  Solving for Uy, Initial residual = 0.137731, Final residual = 0.0126202, No Iterations 3
Pressure gradient source: uncorrected Ubar = 1, pressure gradient = 0.0217766
GAMG:  Solving for p, Initial residual = 0.0484489, Final residual = 0.00367386, No Iterations 5
time step continuity errors : sum local = 3.03611e-08, global = -9.23122e-18, cumulative = 3.66171e-17
Pressure gradient source: uncorrected Ubar = 1, pressure gradient = 0.021861
smoothSolver:  Solving for omega, Initial residual = 9.61498e-06, Final residual = 9.61498e-06, No Iterations 0
smoothSolver:  Solving for k, Initial residual = 0.0101731, Final residual = 0.000673921, No Iterations 5
ExecutionTime = 0.159426 s  ClockTime = 0 s

Time = 75s

smoothSolver:  Solving for Ux, Initial residual = 0.000111361, Final residual = 7.41948e-06, No Iterations 6
smoothSolver:  Solving for Uy, Initial residual = 0.116764, Final residual = 0.00605481, No Iterations 4
Pressure gradient source: uncorrected Ubar = 1, pressure gradient = 0.0217743
GAMG:  Solving for p, Initial residual = 0.0417236, Final residual = 0.0026007, No Iterations 6
time step continuity errors : sum local = 1.97252e-08, global = 1.09629e-17, cumulative = 4.758e-17
Pressure gradient source: uncorrected Ubar = 1, pressure gradient = 0.021856
smoothSolver:  Solving for omega, Initial residual = 9.61491e-06, Final residual = 9.61491e-06, No Iterations 0
smoothSolver:  Solving for k, Initial residual = 0.0102074, Final residual = 0.000811057, No Iterations 5
ExecutionTime = 0.161393 s  ClockTime = 0 s

Time = 76s

smoothSolver:  Solving for Ux, Initial residual = 0.00010847, Final residual = 7.24156e-06, No Iterations 6
smoothSolver:  Solving for Uy, Initial residual = 0.0864266, Final residual = 0.00517605, No Iterations 4
Pressure gradient source: uncorrected Ubar = 1, pressure gradient = 0.0217723
GAMG:  Solving for p, Initial residual = 0.033631, Final residual = 0.00273377, No Iterations 5
time step continuity errors : sum local = 1.90634e-08, global = 1.14687e-17, cumulative = 5.90487e-17
Pressure gradient source: uncorrected Ubar = 1, pressure gradient = 0.0218511
smoothSolver:  Solving for omega, Initial residual = 9.61482e-06, Final residual = 9.61482e-06, No Iterations 0
smoothSolver:  Solving for k, Initial residual = 0.0102061, Final residual = 0.00083389, No Iterations 5
ExecutionTime = 0.163343 s  ClockTime = 0 s

Time = 77s

smoothSolver:  Solving for Ux, Initial residual = 0.000105652, Final residual = 7.06741e-06, No Iterations 6
smoothSolver:  Solving for Uy, Initial residual = 0.0640236, Final residual = 0.00458692, No Iterations 4
Pressure gradient source: uncorrected Ubar = 1, pressure gradient = 0.0217705
GAMG:  Solving for p, Initial residual = 0.0264412, Final residual = 0.0020599, No Iterations 5
time step continuity errors : sum local = 1.3269e-08, global = -1.35823e-18, cumulative = 5.76905e-17
Pressure gradient source: uncorrected Ubar = 1, pressure gradient = 0.0218465
smoothSolver:  Solving for omega, Initial residual = 9.61472e-06, Final residual = 9.61472e-06, No Iterations 0
smoothSolver:  Solving for k, Initial residual = 0.0102049, Final residual = 0.000799195, No Iterations 5
ExecutionTime = 0.165283 s  ClockTime = 0 s

Time = 78s

smoothSolver:  Solving for Ux, Initial residual = 0.000102905, Final residual = 6.89684e-06, No Iterations 6
smoothSolver:  Solving for Uy, Initial residual = 0.052476, Final residual = 0.00391887, No Iterations 4
Pressure gradient source: uncorrected Ubar = 1, pressure gradient = 0.0217688
GAMG:  Solving for p, Initial residual = 0.0213709, Final residual = 0.00197661, No Iterations 5
time step continuity errors : sum local = 1.21486e-08, global = -3.25609e-20, cumulative = 5.7658e-17
Pressure gradient source: uncorrected Ubar = 1, pressure gradient = 0.0218419
smoothSolver:  Solving for omega, Initial residual = 9.61463e-06, Final residual = 9.61463e-06, No Iterations 0
smoothSolver:  Solving for k, Initial residual = 0.0101531, Final residual = 0.000647931, No Iterations 5
ExecutionTime = 0.167225 s  ClockTime = 0 s

Time = 79s

smoothSolver:  Solving for Ux, Initial residual = 0.000100227, Final residual = 6.73104e-06, No Iterations 6
smoothSolver:  Solving for Uy, Initial residual = 0.0425769, Final residual = 0.00320258, No Iterations 4
Pressure gradient source: uncorrected Ubar = 1, pressure gradient = 0.0217672
GAMG:  Solving for p, Initial residual = 0.01768, Final residual = 0.00150945, No Iterations 5
time step continuity errors : sum local = 8.85784e-09, global = 1.82515e-17, cumulative = 7.59094e-17
Pressure gradient source: uncorrected Ubar = 1, pressure gradient = 0.0218376
smoothSolver:  Solving for omega, Initial residual = 9.61454e-06, Final residual = 9.61454e-06, No Iterations 0
smoothSolver:  Solving for k, Initial residual = 0.0101446, Final residual = 0.000706002, No Iterations 5
ExecutionTime = 0.169263 s  ClockTime = 0 s

Time = 80s

smoothSolver:  Solving for Ux, Initial residual = 9.76141e-05, Final residual = 9.96477e-06, No Iterations 5
smoothSolver:  Solving for Uy, Initial residual = 0.0351764, Final residual = 0.00269013, No Iterations 4
Pressure gradient source: uncorrected Ubar = 1, pressure gradient = 0.0217393
GAMG:  Solving for p, Initial residual = 0.0598327, Final residual = 0.00286244, No Iterations 4
time step continuity errors : sum local = 1.75698e-08, global = 8.60316e-18, cumulative = 8.45126e-17
Pressure gradient source: uncorrected Ubar = 1, pressure gradient = 0.0218312
smoothSolver:  Solving for omega, Initial residual = 9.61444e-06, Final residual = 9.61444e-06, No Iterations 0
smoothSolver:  Solving for k, Initial residual = 0.0101716, Final residual = 0.000851191, No Iterations 5
ExecutionTime = 0.171376 s  ClockTime = 0 s

Time = 81s

smoothSolver:  Solving for Ux, Initial residual = 9.52441e-05, Final residual = 9.75511e-06, No Iterations 5
smoothSolver:  Solving for Uy, Initial residual = 0.0628917, Final residual = 0.00354933, No Iterations 4
Pressure gradient source: uncorrected Ubar = 1, pressure gradient = 0.0217469
GAMG:  Solving for p, Initial residual = 0.0457262, Final residual = 0.00338177, No Iterations 4
time step continuity errors : sum local = 2.30148e-08, global = 1.01035e-18, cumulative = 8.55229e-17
Pressure gradient source: uncorrected Ubar = 1, pressure gradient = 0.0218266
smoothSolver:  Solving for omega, Initial residual = 9.61433e-06, Final residual = 9.61433e-06, No Iterations 0
smoothSolver:  Solving for k, Initial residual = 0.0101569, Final residual = 0.00077865, No Iterations 5
ExecutionTime = 0.173456 s  ClockTime = 0 s

Time = 82s

smoothSolver:  Solving for Ux, Initial residual = 9.28878e-05, Final residual = 9.53947e-06, No Iterations 5
smoothSolver:  Solving for Uy, Initial residual = 0.0739196, Final residual = 0.00397326, No Iterations 4
Pressure gradient source: uncorrected Ubar = 1, pressure gradient = 0.0217468
GAMG:  Solving for p, Initial residual = 0.0343898, Final residual = 0.00317109, No Iterations 4
time step continuity errors : sum local = 2.29947e-08, global = 1.28459e-17, cumulative = 9.83688e-17
Pressure gradient source: uncorrected Ubar = 1, pressure gradient = 0.0218223
smoothSolver:  Solving for omega, Initial residual = 9.61423e-06, Final residual = 9.61423e-06, No Iterations 0
smoothSolver:  Solving for k, Initial residual = 0.0101515, Final residual = 0.000777151, No Iterations 5
ExecutionTime = 0.175516 s  ClockTime = 0 s

Time = 83s

smoothSolver:  Solving for Ux, Initial residual = 9.05774e-05, Final residual = 9.32475e-06, No Iterations 5
smoothSolver:  Solving for Uy, Initial residual = 0.0624505, Final residual = 0.00360424, No Iterations 4
Pressure gradient source: uncorrected Ubar = 1, pressure gradient = 0.0217466
GAMG:  Solving for p, Initial residual = 0.0232879, Final residual = 0.00171671, No Iterations 5
time step continuity errors : sum local = 1.22058e-08, global = 7.90297e-19, cumulative = 9.91591e-17
Pressure gradient source: uncorrected Ubar = 1, pressure gradient = 0.0218183
smoothSolver:  Solving for omega, Initial residual = 9.61419e-06, Final residual = 9.61419e-06, No Iterations 0
smoothSolver:  Solving for k, Initial residual = 0.0101142, Final residual = 0.000671507, No Iterations 5
ExecutionTime = 0.177453 s  ClockTime = 0 s

Time = 84s

smoothSolver:  Solving for Ux, Initial residual = 8.8312e-05, Final residual = 9.1116e-06, No Iterations 5
smoothSolver:  Solving for Uy, Initial residual = 0.0473738, Final residual = 0.00300819, No Iterations 4
Pressure gradient source: uncorrected Ubar = 1, pressure gradient = 0.0217462
GAMG:  Solving for p, Initial residual = 0.0132721, Final residual = 0.00113906, No Iterations 5
time step continuity errors : sum local = 8.14319e-09, global = 2.4573e-18, cumulative = 1.01616e-16
Pressure gradient source: uncorrected Ubar = 1, pressure gradient = 0.0218146
smoothSolver:  Solving for omega, Initial residual = 9.6141e-06, Final residual = 9.6141e-06, No Iterations 0
smoothSolver:  Solving for k, Initial residual = 0.0101321, Final residual = 0.000771046, No Iterations 5
ExecutionTime = 0.179411 s  ClockTime = 0 s

Time = 85s

smoothSolver:  Solving for Ux, Initial residual = 8.60923e-05, Final residual = 8.90071e-06, No Iterations 5
smoothSolver:  Solving for Uy, Initial residual = 0.0302357, Final residual = 0.00236604, No Iterations 4
Pressure gradient source: uncorrected Ubar = 1, pressure gradient = 0.0217456
GAMG:  Solving for p, Initial residual = 0.00691642, Final residual = 0.000327755, No Iterations 5
time step continuity errors : sum local = 2.58691e-09, global = 4.45262e-18, cumulative = 1.06069e-16
Pressure gradient source: uncorrected Ubar = 1, pressure gradient = 0.0218111
smoothSolver:  Solving for omega, Initial residual = 9.614e-06, Final residual = 9.614e-06, No Iterations 0
smoothSolver:  Solving for k, Initial residual = 0.0101357, Final residual = 0.000793329, No Iterations 5
ExecutionTime = 0.18134 s  ClockTime = 0 s

Time = 86s

smoothSolver:  Solving for Ux, Initial residual = 8.3919e-05, Final residual = 8.69254e-06, No Iterations 5
smoothSolver:  Solving for Uy, Initial residual = 0.0240412, Final residual = 0.00180529, No Iterations 4
Pressure gradient source: uncorrected Ubar = 1, pressure gradient = 0.0217451
GAMG:  Solving for p, Initial residual = 0.00784803, Final residual = 0.000783144, No Iterations 3
time step continuity errors : sum local = 5.67953e-09, global = -2.80191e-18, cumulative = 1.03267e-16
Pressure gradient source: uncorrected Ubar = 1, pressure gradient = 0.0218078
smoothSolver:  Solving for omega, Initial residual = 9.61392e-06, Final residual = 9.61392e-06, No Iterations 0
smoothSolver:  Solving for k, Initial residual = 0.0101208, Final residual = 0.000766846, No Iterations 5
ExecutionTime = 0.18321 s  ClockTime = 0 s

Time = 87s

smoothSolver:  Solving for Ux, Initial residual = 8.17925e-05, Final residual = 8.48826e-06, No Iterations 5
smoothSolver:  Solving for Uy, Initial residual = 0.0205429, Final residual = 0.00155593, No Iterations 4
Pressure gradient source: uncorrected Ubar = 1, pressure gradient = 0.0217445
GAMG:  Solving for p, Initial residual = 0.0104992, Final residual = 0.000829805, No Iterations 4
time step continuity errors : sum local = 5.83398e-09, global = -6.03202e-19, cumulative = 1.02664e-16
Pressure gradient source: uncorrected Ubar = 1, pressure gradient = 0.0218047
smoothSolver:  Solving for omega, Initial residual = 9.61383e-06, Final residual = 9.61383e-06, No Iterations 0
smoothSolver:  Solving for k, Initial residual = 0.0101012, Final residual = 0.000727174, No Iterations 5
ExecutionTime = 0.185195 s  ClockTime = 0 s

Time = 88s

smoothSolver:  Solving for Ux, Initial residual = 7.97128e-05, Final residual = 8.2871e-06, No Iterations 5
smoothSolver:  Solving for Uy, Initial residual = 0.0227031, Final residual = 0.00148381, No Iterations 4
Pressure gradient source: uncorrected Ubar = 1, pressure gradient = 0.0217438
GAMG:  Solving for p, Initial residual = 0.0126302, Final residual = 0.000992265, No Iterations 4
time step continuity errors : sum local = 7.37001e-09, global = -2.46328e-18, cumulative = 1.00201e-16
Pressure gradient source: uncorrected Ubar = 1, pressure gradient = 0.0218017
smoothSolver:  Solving for omega, Initial residual = 9.61375e-06, Final residual = 9.61375e-06, No Iterations 0
smoothSolver:  Solving for k, Initial residual = 0.0100778, Final residual = 0.000703114, No Iterations 5
ExecutionTime = 0.187166 s  ClockTime = 0 s

Time = 89s

smoothSolver:  Solving for Ux, Initial residual = 7.76798e-05, Final residual = 8.08926e-06, No Iterations 5
smoothSolver:  Solving for Uy, Initial residual = 0.0243681, Final residual = 0.00137476, No Iterations 4
Pressure gradient source: uncorrected Ubar = 1, pressure gradient = 0.0217432
GAMG:  Solving for p, Initial residual = 0.0138496, Final residual = 0.000876904, No Iterations 5
time step continuity errors : sum local = 6.20292e-09, global = -1.35397e-17, cumulative = 8.66609e-17
Pressure gradient source: uncorrected Ubar = 1, pressure gradient = 0.0217989
smoothSolver:  Solving for omega, Initial residual = 9.61366e-06, Final residual = 9.61366e-06, No Iterations 0
smoothSolver:  Solving for k, Initial residual = 0.0100588, Final residual = 0.000671099, No Iterations 5
ExecutionTime = 0.189314 s  ClockTime = 0 s

Time = 90s

smoothSolver:  Solving for Ux, Initial residual = 7.56934e-05, Final residual = 7.89483e-06, No Iterations 5
[...]
smoothSolver:  Solving for k, Initial residual = 0.00995268, Final residual = 0.000744749, No Iterations 5
ExecutionTime = 0.251318 s  ClockTime = 0 s

Time = 121s

smoothSolver:  Solving for Ux, Initial residual = 3.53388e-05, Final residual = 8.8412e-06, No Iterations 3
smoothSolver:  Solving for Uy, Initial residual = 0.023015, Final residual = 0.00126672, No Iterations 4
Pressure gradient source: uncorrected Ubar = 1, pressure gradient = 0.0217198
GAMG:  Solving for p, Initial residual = 0.00947314, Final residual = 0.000613558, No Iterations 5
time step continuity errors : sum local = 4.23457e-09, global = 2.35213e-18, cumulative = 3.40769e-17
Pressure gradient source: uncorrected Ubar = 1, pressure gradient = 0.0217422
smoothSolver:  Solving for omega, Initial residual = 9.00365e-06, Final residual = 9.00365e-06, No Iterations 0
smoothSolver:  Solving for k, Initial residual = 0.00992583, Final residual = 0.000675046, No Iterations 5
ExecutionTime = 0.25339 s  ClockTime = 0 s

Time = 122s

smoothSolver:  Solving for Ux, Initial residual = 3.4554e-05, Final residual = 8.65378e-06, No Iterations 3
smoothSolver:  Solving for Uy, Initial residual = 0.0137246, Final residual = 0.000849603, No Iterations 4
Pressure gradient source: uncorrected Ubar = 1, pressure gradient = 0.02172
GAMG:  Solving for p, Initial residual = 0.00928858, Final residual = 0.000684458, No Iterations 5
time step continuity errors : sum local = 4.56076e-09, global = 5.39698e-18, cumulative = 3.94738e-17
Pressure gradient source: uncorrected Ubar = 1, pressure gradient = 0.0217414
smoothSolver:  Solving for omega, Initial residual = 8.90787e-06, Final residual = 8.90787e-06, No Iterations 0
smoothSolver:  Solving for k, Initial residual = 0.00993972, Final residual = 0.000720914, No Iterations 5
ExecutionTime = 0.255463 s  ClockTime = 0 s

Time = 123s

smoothSolver:  Solving for Ux, Initial residual = 3.37833e-05, Final residual = 8.46849e-06, No Iterations 3
smoothSolver:  Solving for Uy, Initial residual = 0.0106775, Final residual = 0.00068319, No Iterations 4
Pressure gradient source: uncorrected Ubar = 1, pressure gradient = 0.02172
GAMG:  Solving for p, Initial residual = 0.010477, Final residual = 0.000775887, No Iterations 4
time step continuity errors : sum local = 4.90707e-09, global = 5.11355e-18, cumulative = 4.45874e-17
Pressure gradient source: uncorrected Ubar = 1, pressure gradient = 0.0217406
smoothSolver:  Solving for omega, Initial residual = 8.85215e-06, Final residual = 8.85215e-06, No Iterations 0
smoothSolver:  Solving for k, Initial residual = 0.00993269, Final residual = 0.000763554, No Iterations 5
ExecutionTime = 0.257515 s  ClockTime = 0 s

Time = 124s

smoothSolver:  Solving for Ux, Initial residual = 3.3027e-05, Final residual = 8.28567e-06, No Iterations 3
smoothSolver:  Solving for Uy, Initial residual = 0.0129925, Final residual = 0.000698974, No Iterations 4
Pressure gradient source: uncorrected Ubar = 1, pressure gradient = 0.0217201
GAMG:  Solving for p, Initial residual = 0.0117115, Final residual = 0.000543808, No Iterations 4
time step continuity errors : sum local = 3.4462e-09, global = 3.35713e-18, cumulative = 4.79445e-17
Pressure gradient source: uncorrected Ubar = 1, pressure gradient = 0.0217399
smoothSolver:  Solving for omega, Initial residual = 8.83337e-06, Final residual = 8.83337e-06, No Iterations 0
smoothSolver:  Solving for k, Initial residual = 0.00993388, Final residual = 0.000770515, No Iterations 5
ExecutionTime = 0.259527 s  ClockTime = 0 s

Time = 125s

smoothSolver:  Solving for Ux, Initial residual = 3.22852e-05, Final residual = 8.10554e-06, No Iterations 3
smoothSolver:  Solving for Uy, Initial residual = 0.0161715, Final residual = 0.0015694, No Iterations 3
Pressure gradient source: uncorrected Ubar = 1, pressure gradient = 0.0217201
GAMG:  Solving for p, Initial residual = 0.0126023, Final residual = 0.000440117, No Iterations 4
time step continuity errors : sum local = 2.7945e-09, global = 3.28023e-18, cumulative = 5.12247e-17
Pressure gradient source: uncorrected Ubar = 1, pressure gradient = 0.0217393
smoothSolver:  Solving for omega, Initial residual = 1.11642e-05, Final residual = 2.09531e-06, No Iterations 1
smoothSolver:  Solving for k, Initial residual = 0.00940897, Final residual = 0.000642915, No Iterations 5
ExecutionTime = 0.261422 s  ClockTime = 0 s

Time = 126s

smoothSolver:  Solving for Ux, Initial residual = 3.15579e-05, Final residual = 7.92877e-06, No Iterations 3
smoothSolver:  Solving for Uy, Initial residual = 0.0185274, Final residual = 0.00175908, No Iterations 3
Pressure gradient source: uncorrected Ubar = 1, pressure gradient = 0.0217202
GAMG:  Solving for p, Initial residual = 0.0130939, Final residual = 0.00051586, No Iterations 4
time step continuity errors : sum local = 3.10686e-09, global = 6.82372e-19, cumulative = 5.19071e-17
Pressure gradient source: uncorrected Ubar = 1, pressure gradient = 0.0217387
smoothSolver:  Solving for omega, Initial residual = 4.12585e-05, Final residual = 2.11669e-06, No Iterations 1
smoothSolver:  Solving for k, Initial residual = 0.00881246, Final residual = 0.000621369, No Iterations 5
bounding k, min: 1.97702e-16 max: 1.52084e-10 average: 7.77222e-11
ExecutionTime = 0.263468 s  ClockTime = 0 s

Time = 127s

smoothSolver:  Solving for Ux, Initial residual = 3.08452e-05, Final residual = 7.75519e-06, No Iterations 3
smoothSolver:  Solving for Uy, Initial residual = 0.0199288, Final residual = 0.00190126, No Iterations 3
Pressure gradient source: uncorrected Ubar = 1, pressure gradient = 0.0217202
GAMG:  Solving for p, Initial residual = 0.0132399, Final residual = 0.000752597, No Iterations 4
time step continuity errors : sum local = 4.48433e-09, global = -3.86055e-18, cumulative = 4.80466e-17
Pressure gradient source: uncorrected Ubar = 1, pressure gradient = 0.0217381
smoothSolver:  Solving for omega, Initial residual = 0.000154653, Final residual = 3.18163e-06, No Iterations 1
smoothSolver:  Solving for k, Initial residual = 0.00829649, Final residual = 0.000655861, No Iterations 5
bounding k, min: 1.76667e-16 max: 1.35671e-10 average: 6.90912e-11
ExecutionTime = 0.265524 s  ClockTime = 0 s

Time = 128s

smoothSolver:  Solving for Ux, Initial residual = 3.01471e-05, Final residual = 7.58464e-06, No Iterations 3
smoothSolver:  Solving for Uy, Initial residual = 0.0208871, Final residual = 0.00202572, No Iterations 3
Pressure gradient source: uncorrected Ubar = 1, pressure gradient = 0.0217202
GAMG:  Solving for p, Initial residual = 0.0132109, Final residual = 0.00130138, No Iterations 4
time step continuity errors : sum local = 7.44918e-09, global = 1.08905e-18, cumulative = 4.91356e-17
Pressure gradient source: uncorrected Ubar = 1, pressure gradient = 0.0217375
smoothSolver:  Solving for omega, Initial residual = 0.000179237, Final residual = 2.92742e-06, No Iterations 1
smoothSolver:  Solving for k, Initial residual = 0.00781728, Final residual = 0.000703522, No Iterations 5
bounding k, min: 1.59083e-16 max: 1.20038e-10 average: 6.166e-11
ExecutionTime = 0.267479 s  ClockTime = 0 s

Time = 129s

smoothSolver:  Solving for Ux, Initial residual = 2.94634e-05, Final residual = 7.41718e-06, No Iterations 3
smoothSolver:  Solving for Uy, Initial residual = 0.0214087, Final residual = 0.00213327, No Iterations 3
Pressure gradient source: uncorrected Ubar = 1, pressure gradient = 0.0217202
GAMG:  Solving for p, Initial residual = 0.0134202, Final residual = 0.00129471, No Iterations 5
time step continuity errors : sum local = 7.48793e-09, global = 1.58424e-18, cumulative = 5.07199e-17
Pressure gradient source: uncorrected Ubar = 1, pressure gradient = 0.021737
smoothSolver:  Solving for omega, Initial residual = 0.000141543, Final residual = 2.38407e-06, No Iterations 1
smoothSolver:  Solving for k, Initial residual = 0.00735175, Final residual = 0.000562964, No Iterations 5
bounding k, min: 1.43563e-16 max: 1.09523e-10 average: 5.56887e-11
ExecutionTime = 0.269525 s  ClockTime = 0 s

Time = 130s

smoothSolver:  Solving for Ux, Initial residual = 2.87941e-05, Final residual = 7.25285e-06, No Iterations 3
smoothSolver:  Solving for Uy, Initial residual = 0.0226032, Final residual = 0.00113471, No Iterations 4
Pressure gradient source: uncorrected Ubar = 1, pressure gradient = 0.0217202
GAMG:  Solving for p, Initial residual = 0.0135165, Final residual = 0.00117664, No Iterations 5
time step continuity errors : sum local = 6.66098e-09, global = -1.4143e-17, cumulative = 3.65768e-17
Pressure gradient source: uncorrected Ubar = 1, pressure gradient = 0.0217365
smoothSolver:  Solving for omega, Initial residual = 9.75843e-05, Final residual = 1.88028e-06, No Iterations 1
smoothSolver:  Solving for k, Initial residual = 0.00691297, Final residual = 0.000499932, No Iterations 5
bounding k, min: 1.29776e-16 max: 9.97784e-11 average: 5.07259e-11
ExecutionTime = 0.271771 s  ClockTime = 0 s

Time = 131s

smoothSolver:  Solving for Ux, Initial residual = 2.81391e-05, Final residual = 7.09166e-06, No Iterations 3
smoothSolver:  Solving for Uy, Initial residual = 0.0225631, Final residual = 0.001143, No Iterations 4
Pressure gradient source: uncorrected Ubar = 1, pressure gradient = 0.0217202
GAMG:  Solving for p, Initial residual = 0.0134592, Final residual = 0.00113532, No Iterations 5
time step continuity errors : sum local = 6.01288e-09, global = -6.2654e-18, cumulative = 3.03114e-17
Pressure gradient source: uncorrected Ubar = 1, pressure gradient = 0.021736
smoothSolver:  Solving for omega, Initial residual = 6.27891e-05, Final residual = 1.47571e-06, No Iterations 1
smoothSolver:  Solving for k, Initial residual = 0.00653515, Final residual = 0.000557892, No Iterations 5
bounding k, min: 1.17602e-16 max: 9.14328e-11 average: 4.62059e-11
ExecutionTime = 0.273903 s  ClockTime = 0 s

Time = 132s

smoothSolver:  Solving for Ux, Initial residual = 2.74982e-05, Final residual = 6.93362e-06, No Iterations 3
smoothSolver:  Solving for Uy, Initial residual = 0.0226107, Final residual = 0.00113483, No Iterations 4
Pressure gradient source: uncorrected Ubar = 1, pressure gradient = 0.0217202
GAMG:  Solving for p, Initial residual = 0.0132283, Final residual = 0.00119882, No Iterations 5
time step continuity errors : sum local = 6.18523e-09, global = 3.3979e-18, cumulative = 3.37093e-17
Pressure gradient source: uncorrected Ubar = 1, pressure gradient = 0.0217355
smoothSolver:  Solving for omega, Initial residual = 3.93293e-05, Final residual = 1.18054e-06, No Iterations 1
smoothSolver:  Solving for k, Initial residual = 0.00616059, Final residual = 0.00049241, No Iterations 5
bounding k, min: 1.06934e-16 max: 8.32543e-11 average: 4.2382e-11
ExecutionTime = 0.27599 s  ClockTime = 0 s

Time = 133s

smoothSolver:  Solving for Ux, Initial residual = 2.68711e-05, Final residual = 6.77872e-06, No Iterations 3
smoothSolver:  Solving for Uy, Initial residual = 0.0224821, Final residual = 0.00113384, No Iterations 4
Pressure gradient source: uncorrected Ubar = 1, pressure gradient = 0.0217202
GAMG:  Solving for p, Initial residual = 0.0130156, Final residual = 0.00123087, No Iterations 5
time step continuity errors : sum local = 6.22757e-09, global = 3.34989e-18, cumulative = 3.70592e-17
Pressure gradient source: uncorrected Ubar = 1, pressure gradient = 0.0217351
smoothSolver:  Solving for omega, Initial residual = 2.54913e-05, Final residual = 1.19141e-06, No Iterations 1
smoothSolver:  Solving for k, Initial residual = 0.00581427, Final residual = 0.000479287, No Iterations 5
bounding k, min: 9.76932e-17 max: 7.76156e-11 average: 3.91244e-11
ExecutionTime = 0.278017 s  ClockTime = 0 s

Time = 134s

smoothSolver:  Solving for Ux, Initial residual = 2.62578e-05, Final residual = 6.62694e-06, No Iterations 3
smoothSolver:  Solving for Uy, Initial residual = 0.0223302, Final residual = 0.00112836, No Iterations 4
Pressure gradient source: uncorrected Ubar = 1, pressure gradient = 0.0217202
GAMG:  Solving for p, Initial residual = 0.0128072, Final residual = 0.00121567, No Iterations 5
time step continuity errors : sum local = 6.02589e-09, global = 9.95944e-18, cumulative = 4.70187e-17
Pressure gradient source: uncorrected Ubar = 1, pressure gradient = 0.0217346
smoothSolver:  Solving for omega, Initial residual = 2.49749e-05, Final residual = 1.74476e-06, No Iterations 1
smoothSolver:  Solving for k, Initial residual = 0.00548248, Final residual = 0.000405426, No Iterations 5
bounding k, min: 8.98386e-17 max: 7.25524e-11 average: 3.62972e-11
ExecutionTime = 0.280053 s  ClockTime = 0 s

Time = 135s

smoothSolver:  Solving for Ux, Initial residual = 2.56579e-05, Final residual = 9.90632e-06, No Iterations 2
smoothSolver:  Solving for Uy, Initial residual = 0.0220963, Final residual = 0.00111808, No Iterations 4
Pressure gradient source: uncorrected Ubar = 1, pressure gradient = 0.0217099
GAMG:  Solving for p, Initial residual = 0.042437, Final residual = 0.00356949, No Iterations 4
time step continuity errors : sum local = 1.83819e-08, global = -4.97945e-18, cumulative = 4.20392e-17
Pressure gradient source: uncorrected Ubar = 1, pressure gradient = 0.0217314
smoothSolver:  Solving for omega, Initial residual = 2.61916e-05, Final residual = 2.2439e-06, No Iterations 1
smoothSolver:  Solving for k, Initial residual = 0.00518647, Final residual = 0.000414684, No Iterations 5
bounding k, min: 8.31908e-17 max: 6.73102e-11 average: 3.38037e-11
ExecutionTime = 0.28213 s  ClockTime = 0 s

Time = 136s

smoothSolver:  Solving for Ux, Initial residual = 2.52406e-05, Final residual = 9.78419e-06, No Iterations 2
smoothSolver:  Solving for Uy, Initial residual = 0.043712, Final residual = 0.00238556, No Iterations 4
Pressure gradient source: uncorrected Ubar = 1, pressure gradient = 0.0217172
GAMG:  Solving for p, Initial residual = 0.0413911, Final residual = 0.00350726, No Iterations 5
time step continuity errors : sum local = 1.99897e-08, global = 2.46895e-18, cumulative = 4.45081e-17
Pressure gradient source: uncorrected Ubar = 1, pressure gradient = 0.0217304
smoothSolver:  Solving for omega, Initial residual = 2.23795e-05, Final residual = 2.14405e-06, No Iterations 1
smoothSolver:  Solving for k, Initial residual = 0.00491024, Final residual = 0.000405292, No Iterations 5
bounding k, min: 7.7456e-17 max: 6.28888e-11 average: 3.15659e-11
ExecutionTime = 0.284224 s  ClockTime = 0 s

Time = 137s

smoothSolver:  Solving for Ux, Initial residual = 2.47856e-05, Final residual = 9.63296e-06, No Iterations 2
smoothSolver:  Solving for Uy, Initial residual = 0.0567998, Final residual = 0.00536366, No Iterations 3
Pressure gradient source: uncorrected Ubar = 1, pressure gradient = 0.0217178
GAMG:  Solving for p, Initial residual = 0.0337908, Final residual = 0.00270594, No Iterations 5
time step continuity errors : sum local = 1.60157e-08, global = 5.62239e-18, cumulative = 5.01305e-17
Pressure gradient source: uncorrected Ubar = 1, pressure gradient = 0.0217295
smoothSolver:  Solving for omega, Initial residual = 1.70612e-05, Final residual = 1.77602e-06, No Iterations 1
smoothSolver:  Solving for k, Initial residual = 0.00463982, Final residual = 0.000347656, No Iterations 5
bounding k, min: 7.2422e-17 max: 5.95667e-11 average: 2.96331e-11
ExecutionTime = 0.286282 s  ClockTime = 0 s

Time = 138s

smoothSolver:  Solving for Ux, Initial residual = 2.43336e-05, Final residual = 9.47594e-06, No Iterations 2
smoothSolver:  Solving for Uy, Initial residual = 0.0498839, Final residual = 0.00434433, No Iterations 3
Pressure gradient source: uncorrected Ubar = 1, pressure gradient = 0.0217181
GAMG:  Solving for p, Initial residual = 0.0234839, Final residual = 0.00189995, No Iterations 4
time step continuity errors : sum local = 1.12243e-08, global = -2.09929e-18, cumulative = 4.80312e-17
Pressure gradient source: uncorrected Ubar = 1, pressure gradient = 0.0217289
smoothSolver:  Solving for omega, Initial residual = 1.20768e-05, Final residual = 1.43731e-06, No Iterations 1
smoothSolver:  Solving for k, Initial residual = 0.00438404, Final residual = 0.000312162, No Iterations 5
bounding k, min: 6.79676e-17 max: 5.67977e-11 average: 2.79448e-11
ExecutionTime = 0.288377 s  ClockTime = 0 s

Time = 139s

smoothSolver:  Solving for Ux, Initial residual = 2.38858e-05, Final residual = 9.31623e-06, No Iterations 2
smoothSolver:  Solving for Uy, Initial residual = 0.0367311, Final residual = 0.0031748, No Iterations 3
Pressure gradient source: uncorrected Ubar = 1, pressure gradient = 0.0217183
GAMG:  Solving for p, Initial residual = 0.0156737, Final residual = 0.000880921, No Iterations 4
time step continuity errors : sum local = 5.28329e-09, global = 4.91192e-18, cumulative = 5.29432e-17
Pressure gradient source: uncorrected Ubar = 1, pressure gradient = 0.0217284
smoothSolver:  Solving for omega, Initial residual = 9.36945e-06, Final residual = 9.36945e-06, No Iterations 0
smoothSolver:  Solving for k, Initial residual = 0.0042991, Final residual = 0.000408629, No Iterations 5
bounding k, min: 6.39166e-17 max: 5.37246e-11 average: 2.62541e-11
ExecutionTime = 0.290456 s  ClockTime = 0 s

Time = 140s

smoothSolver:  Solving for Ux, Initial residual = 2.34433e-05, Final residual = 9.15555e-06, No Iterations 2
smoothSolver:  Solving for Uy, Initial residual = 0.0237179, Final residual = 0.00223486, No Iterations 3
Pressure gradient source: uncorrected Ubar = 1, pressure gradient = 0.0217185
GAMG:  Solving for p, Initial residual = 0.010442, Final residual = 0.000762223, No Iterations 5
time step continuity errors : sum local = 4.59681e-09, global = 1.15677e-17, cumulative = 6.45109e-17
Pressure gradient source: uncorrected Ubar = 1, pressure gradient = 0.0217279
smoothSolver:  Solving for omega, Initial residual = 2.06871e-05, Final residual = 2.36443e-06, No Iterations 1
smoothSolver:  Solving for k, Initial residual = 0.00412121, Final residual = 0.000298559, No Iterations 5
bounding k, min: 6.05352e-17 max: 5.10321e-11 average: 2.4811e-11
ExecutionTime = 0.292547 s  ClockTime = 0 s

Time = 141s

smoothSolver:  Solving for Ux, Initial residual = 2.30063e-05, Final residual = 8.99485e-06, No Iterations 2
smoothSolver:  Solving for Uy, Initial residual = 0.012311, Final residual = 0.000698336, No Iterations 4
Pressure gradient source: uncorrected Ubar = 1, pressure gradient = 0.0217186
GAMG:  Solving for p, Initial residual = 0.00851974, Final residual = 0.000845446, No Iterations 5
time step continuity errors : sum local = 5.68151e-09, global = -2.12179e-18, cumulative = 6.23891e-17
Pressure gradient source: uncorrected Ubar = 1, pressure gradient = 0.0217275
smoothSolver:  Solving for omega, Initial residual = 6.80762e-06, Final residual = 6.80762e-06, No Iterations 0
smoothSolver:  Solving for k, Initial residual = 0.00402982, Final residual = 0.000318827, No Iterations 5
bounding k, min: 5.74082e-17 max: 4.8284e-11 average: 2.34658e-11
ExecutionTime = 0.294574 s  ClockTime = 0 s

Time = 142s

smoothSolver:  Solving for Ux, Initial residual = 2.25751e-05, Final residual = 8.83474e-06, No Iterations 2
smoothSolver:  Solving for Uy, Initial residual = 0.00923863, Final residual = 0.000462173, No Iterations 4
Pressure gradient source: uncorrected Ubar = 1, pressure gradient = 0.0217186
GAMG:  Solving for p, Initial residual = 0.00954787, Final residual = 0.000508041, No Iterations 5
time step continuity errors : sum local = 3.38791e-09, global = -4.72272e-19, cumulative = 6.19168e-17
Pressure gradient source: uncorrected Ubar = 1, pressure gradient = 0.0217272
smoothSolver:  Solving for omega, Initial residual = 1.33142e-05, Final residual = 2.25284e-06, No Iterations 1
smoothSolver:  Solving for k, Initial residual = 0.00389363, Final residual = 0.000326543, No Iterations 5
bounding k, min: 5.47515e-17 max: 4.56847e-11 average: 2.22273e-11
ExecutionTime = 0.296747 s  ClockTime = 0 s


SIMPLE solution converged in 142 iterations

End

