/*---------------------------------------------------------------------------*\
  =========                 |
  \\      /  F ield         | OpenFOAM: The Open Source CFD Toolbox
   \\    /   O peration     | Website:  https://openfoam.org
    \\  /    A nd           | Version:  10
     \\/     M anipulation  |
\*---------------------------------------------------------------------------*/
Build  : 10-e450dce21ea5
Exec   : blockMesh
Date   : Feb 20 2023
Time   : 14:12:53
Host   : "w530-R9YK46P"
PID    : 18689
I/O    : uncollated
Case   : /home/jdmezazeron/gitDanielMezaZ/turbulenceVisualized/Data/SimulationFiles/K23_Re1350
nProcs : 1
sigFpe : Enabling floating point exception trapping (FOAM_SIGFPE).
fileModificationChecking : Monitoring run-time modified files using timeStampMaster (fileModificationSkew 10)
allowSystemOperations : Allowing user-supplied system call operations

// * * * * * * * * * * * * * * * * * * * * * * * * * * * * * * * * * * * * * //
Create time

Deleting polyMesh directory
    "/home/jdmezazeron/gitDanielMezaZ/turbulenceVisualized/Data/SimulationFiles/K23_Re1350/constant/polyMesh"
Reading "blockMeshDict"

Creating block mesh from
    "system/blockMeshDict"
Creating block edges
No non-planar block faces defined
Creating topology blocks
Creating topology patches

Creating block mesh topology

Check topology

	Basic statistics
		Number of internal faces : 0
		Number of boundary faces : 6
		Number of defined boundary faces : 6
		Number of undefined boundary faces : 0
	Checking patch -> block consistency

Creating block offsets
Creating merge list .

Creating polyMesh from blockMesh
Creating patches
Creating cells
Creating points with scale 1
    Block 0 cell size :
        i : 0.5
        j : 0.00461374 .. 0.018455
        k : 2

Detected cyclic patches; ordering boundary faces

Writing polyMesh
----------------
Mesh Information
----------------
  boundingBox: (-1 0 -1) (1 1 1)
  nPoints: 1010
  nCells: 400
  nFaces: 1704
  nInternalFaces: 696
----------------
Patches
----------------
  patch 0 (start: 696 size: 100) name: inlet
  patch 1 (start: 796 size: 100) name: outlet
  patch 2 (start: 896 size: 4) name: fixedWalls-bottom
  patch 3 (start: 900 size: 4) name: fixedWalls-top
  patch 4 (start: 904 size: 800) name: frontAndBack

End

/*---------------------------------------------------------------------------*\
  =========                 |
  \\      /  F ield         | OpenFOAM: The Open Source CFD Toolbox
   \\    /   O peration     | Website:  https://openfoam.org
    \\  /    A nd           | Version:  10
     \\/     M anipulation  |
\*---------------------------------------------------------------------------*/
Build  : 10-e450dce21ea5
Exec   : simpleFoam
Date   : Feb 20 2023
Time   : 14:12:53
Host   : "w530-R9YK46P"
PID    : 18690
I/O    : uncollated
Case   : /home/jdmezazeron/gitDanielMezaZ/turbulenceVisualized/Data/SimulationFiles/K23_Re1350
nProcs : 1
sigFpe : Enabling floating point exception trapping (FOAM_SIGFPE).
fileModificationChecking : Monitoring run-time modified files using timeStampMaster (fileModificationSkew 10)
allowSystemOperations : Allowing user-supplied system call operations

// * * * * * * * * * * * * * * * * * * * * * * * * * * * * * * * * * * * * * //
Create time

Create mesh for time = 0


SIMPLE: Convergence criteria found
        U: tolerance 0.0001
        p: tolerance 0.01
        omega: tolerance 0.0001

Reading field p

Reading field U

Reading/calculating face flux field phi

Selecting viscosity model Newtonian
Selecting turbulence model type RAS
Selecting RAS turbulence model kOmegaSST
Selecting patchDistMethod meshWave
RAS
{
    RASModel        kOmegaSST;
    turbulence      on;
    printCoeffs     on;
    alphaK1         0.85;
    alphaK2         1;
    alphaOmega1     0.5;
    alphaOmega2     0.856;
    gamma1          0.555556;
    gamma2          0.44;
    beta1           0.075;
    beta2           0.0828;
    betaStar        0.09;
    a1              0.31;
    b1              1;
    c1              10;
    F3              false;
}

No MRF models present

--> FOAM Warning : Creating fvModels from "system/fvOptions" rather than constant/fvModels
No fvModels present
--> FOAM Warning : Creating fvConstraints from "system/fvOptions"

Selecting finite volume constraint type meanVelocityForce
    Name: momentumSource
    - selecting all cells
    - selected 400 cell(s) with volume 4
    Initial pressure gradient = 0


Starting time loop

turbulenceFields stressComponents: storing fields:
    R

Time = 1s

smoothSolver:  Solving for Ux, Initial residual = 0, Final residual = 0, No Iterations 0
smoothSolver:  Solving for Uy, Initial residual = 0, Final residual = 0, No Iterations 0
Pressure gradient source: uncorrected Ubar = 0, pressure gradient = 1334.31
GAMG:  Solving for p, Initial residual = 0.999996, Final residual = 0.095861, No Iterations 2
time step continuity errors : sum local = 8.66755e-17, global = -2.69903e-18, cumulative = -2.69903e-18
Pressure gradient source: uncorrected Ubar = 0.884652, pressure gradient = 153.91
smoothSolver:  Solving for omega, Initial residual = 0.19237, Final residual = 0.0116234, No Iterations 3
smoothSolver:  Solving for k, Initial residual = 1, Final residual = 0.0588036, No Iterations 2
ExecutionTime = 0.014091 s  ClockTime = 0 s

Time = 2s

smoothSolver:  Solving for Ux, Initial residual = 0.987922, Final residual = 0.0894602, No Iterations 6
smoothSolver:  Solving for Uy, Initial residual = 1, Final residual = 0.0959119, No Iterations 5
Pressure gradient source: uncorrected Ubar = 36.0513, pressure gradient = -1148.11
GAMG:  Solving for p, Initial residual = 1, Final residual = 0.0945892, No Iterations 7
time step continuity errors : sum local = 0.0284949, global = -5.06865e-18, cumulative = -7.76767e-18
Pressure gradient source: uncorrected Ubar = 5.49981, pressure gradient = -13.24
smoothSolver:  Solving for omega, Initial residual = 0.195826, Final residual = 0.00091496, No Iterations 1
smoothSolver:  Solving for k, Initial residual = 0.97725, Final residual = 0.0210521, No Iterations 1
ExecutionTime = 0.016879 s  ClockTime = 0 s

Time = 3s

smoothSolver:  Solving for Ux, Initial residual = 0.479104, Final residual = 0.0400624, No Iterations 6
smoothSolver:  Solving for Uy, Initial residual = 0.506553, Final residual = 0.0503125, No Iterations 2
Pressure gradient source: uncorrected Ubar = -1.12199, pressure gradient = 99.0141
GAMG:  Solving for p, Initial residual = 0.209101, Final residual = 0.0178737, No Iterations 4
time step continuity errors : sum local = 0.0106035, global = 4.55026e-18, cumulative = -3.21741e-18
Pressure gradient source: uncorrected Ubar = 0.738121, pressure gradient = 0.613531
smoothSolver:  Solving for omega, Initial residual = 0.00939713, Final residual = 0.000228412, No Iterations 1
smoothSolver:  Solving for k, Initial residual = 0.374653, Final residual = 0.0197151, No Iterations 2
ExecutionTime = 0.019333 s  ClockTime = 0 s

Time = 4s

smoothSolver:  Solving for Ux, Initial residual = 0.0836889, Final residual = 0.00662935, No Iterations 4
smoothSolver:  Solving for Uy, Initial residual = 0.2428, Final residual = 0.0185123, No Iterations 3
Pressure gradient source: uncorrected Ubar = 1.00559, pressure gradient = 0.387998
GAMG:  Solving for p, Initial residual = 0.131122, Final residual = 0.0100874, No Iterations 11
time step continuity errors : sum local = 0.00884788, global = -3.52823e-17, cumulative = -3.84997e-17
Pressure gradient source: uncorrected Ubar = 1.00019, pressure gradient = 0.605689
smoothSolver:  Solving for omega, Initial residual = 0.00794092, Final residual = 0.000190181, No Iterations 1
smoothSolver:  Solving for k, Initial residual = 0.383414, Final residual = 0.0216482, No Iterations 3
ExecutionTime = 0.02218 s  ClockTime = 0 s

Time = 5s

smoothSolver:  Solving for Ux, Initial residual = 0.0684528, Final residual = 0.00621779, No Iterations 4
smoothSolver:  Solving for Uy, Initial residual = 0.320883, Final residual = 0.0197745, No Iterations 3
Pressure gradient source: uncorrected Ubar = 0.984742, pressure gradient = 1.30573
GAMG:  Solving for p, Initial residual = 0.13079, Final residual = 0.0128089, No Iterations 9
time step continuity errors : sum local = 0.0108321, global = 9.58841e-18, cumulative = -2.89113e-17
Pressure gradient source: uncorrected Ubar = 0.997058, pressure gradient = 0.740683
smoothSolver:  Solving for omega, Initial residual = 0.00368466, Final residual = 0.000267584, No Iterations 1
smoothSolver:  Solving for k, Initial residual = 0.627225, Final residual = 0.0573476, No Iterations 2
ExecutionTime = 0.024889 s  ClockTime = 0 s

Time = 6s

smoothSolver:  Solving for Ux, Initial residual = 0.0616739, Final residual = 0.0053803, No Iterations 4
smoothSolver:  Solving for Uy, Initial residual = 0.57882, Final residual = 0.0387604, No Iterations 3
Pressure gradient source: uncorrected Ubar = 0.96434, pressure gradient = 2.59501
GAMG:  Solving for p, Initial residual = 0.16436, Final residual = 0.0149235, No Iterations 8
time step continuity errors : sum local = 0.00975704, global = -9.99159e-18, cumulative = -3.89029e-17
Pressure gradient source: uncorrected Ubar = 0.994321, pressure gradient = 1.03598
smoothSolver:  Solving for omega, Initial residual = 0.00324783, Final residual = 0.000202422, No Iterations 2
smoothSolver:  Solving for k, Initial residual = 0.439348, Final residual = 0.040113, No Iterations 2
ExecutionTime = 0.027535 s  ClockTime = 0 s

Time = 7s

smoothSolver:  Solving for Ux, Initial residual = 0.0485984, Final residual = 0.00431215, No Iterations 4
smoothSolver:  Solving for Uy, Initial residual = 0.449905, Final residual = 0.0241099, No Iterations 3
Pressure gradient source: uncorrected Ubar = 0.965152, pressure gradient = 2.94509
GAMG:  Solving for p, Initial residual = 0.137541, Final residual = 0.0120361, No Iterations 8
time step continuity errors : sum local = 0.0059807, global = -6.55942e-17, cumulative = -1.04497e-16
Pressure gradient source: uncorrected Ubar = 0.995092, pressure gradient = 1.30486
smoothSolver:  Solving for omega, Initial residual = 0.00242959, Final residual = 0.000131177, No Iterations 2
smoothSolver:  Solving for k, Initial residual = 0.192523, Final residual = 0.00915647, No Iterations 3
ExecutionTime = 0.03021 s  ClockTime = 0 s

Time = 8s

smoothSolver:  Solving for Ux, Initial residual = 0.046561, Final residual = 0.00434754, No Iterations 4
smoothSolver:  Solving for Uy, Initial residual = 0.275928, Final residual = 0.0124208, No Iterations 3
Pressure gradient source: uncorrected Ubar = 1.01507, pressure gradient = 0.3969
GAMG:  Solving for p, Initial residual = 0.128334, Final residual = 0.0124635, No Iterations 7
time step continuity errors : sum local = 0.00422096, global = 9.21572e-19, cumulative = -1.03576e-16
Pressure gradient source: uncorrected Ubar = 1.00176, pressure gradient = 1.19908
smoothSolver:  Solving for omega, Initial residual = 0.00130165, Final residual = 0.000106138, No Iterations 2
smoothSolver:  Solving for k, Initial residual = 0.116192, Final residual = 0.00893317, No Iterations 3
ExecutionTime = 0.032866 s  ClockTime = 0 s

Time = 9s

smoothSolver:  Solving for Ux, Initial residual = 0.0358259, Final residual = 0.00340382, No Iterations 4
smoothSolver:  Solving for Uy, Initial residual = 0.212802, Final residual = 0.0162423, No Iterations 3
Pressure gradient source: uncorrected Ubar = 0.98704, pressure gradient = 2.07405
GAMG:  Solving for p, Initial residual = 0.124165, Final residual = 0.0104307, No Iterations 6
time step continuity errors : sum local = 0.00302938, global = -2.65342e-17, cumulative = -1.3011e-16
Pressure gradient source: uncorrected Ubar = 0.998137, pressure gradient = 1.32483
smoothSolver:  Solving for omega, Initial residual = 0.000863588, Final residual = 5.17775e-05, No Iterations 3
smoothSolver:  Solving for k, Initial residual = 0.101794, Final residual = 0.00585973, No Iterations 4
ExecutionTime = 0.035466 s  ClockTime = 0 s

Time = 10s

smoothSolver:  Solving for Ux, Initial residual = 0.0299596, Final residual = 0.00287677, No Iterations 4
smoothSolver:  Solving for Uy, Initial residual = 0.1934, Final residual = 0.0172342, No Iterations 3
Pressure gradient source: uncorrected Ubar = 0.986985, pressure gradient = 2.35219
GAMG:  Solving for p, Initial residual = 0.135844, Final residual = 0.0118034, No Iterations 7
time step continuity errors : sum local = 0.00263696, global = 5.67512e-19, cumulative = -1.29542e-16
Pressure gradient source: uncorrected Ubar = 0.998138, pressure gradient = 1.4718
smoothSolver:  Solving for omega, Initial residual = 0.000691341, Final residual = 5.97075e-05, No Iterations 3
smoothSolver:  Solving for k, Initial residual = 0.0836334, Final residual = 0.00676368, No Iterations 4
ExecutionTime = 0.038191 s  ClockTime = 0 s

Time = 11s

smoothSolver:  Solving for Ux, Initial residual = 0.0259127, Final residual = 0.00253227, No Iterations 4
smoothSolver:  Solving for Uy, Initial residual = 0.17054, Final residual = 0.0151829, No Iterations 3
Pressure gradient source: uncorrected Ubar = 0.993841, pressure gradient = 2.03086
GAMG:  Solving for p, Initial residual = 0.149111, Final residual = 0.0144551, No Iterations 7
time step continuity errors : sum local = 0.00340137, global = 3.84765e-18, cumulative = -1.25695e-16
Pressure gradient source: uncorrected Ubar = 0.999038, pressure gradient = 1.5591
smoothSolver:  Solving for omega, Initial residual = 0.000551629, Final residual = 3.63268e-05, No Iterations 4
smoothSolver:  Solving for k, Initial residual = 0.069472, Final residual = 0.00691431, No Iterations 4
ExecutionTime = 0.040932 s  ClockTime = 0 s

Time = 12s

smoothSolver:  Solving for Ux, Initial residual = 0.0230249, Final residual = 0.00148151, No Iterations 5
smoothSolver:  Solving for Uy, Initial residual = 0.152273, Final residual = 0.0151895, No Iterations 3
Pressure gradient source: uncorrected Ubar = 0.997666, pressure gradient = 1.79325
GAMG:  Solving for p, Initial residual = 0.137319, Final residual = 0.00883503, No Iterations 9
time step continuity errors : sum local = 0.00222406, global = 7.69784e-18, cumulative = -1.17997e-16
Pressure gradient source: uncorrected Ubar = 0.999607, pressure gradient = 1.59849
smoothSolver:  Solving for omega, Initial residual = 0.000458063, Final residual = 3.63464e-05, No Iterations 4
smoothSolver:  Solving for k, Initial residual = 0.0573903, Final residual = 0.00373016, No Iterations 5
ExecutionTime = 0.043762 s  ClockTime = 0 s

Time = 13s

smoothSolver:  Solving for Ux, Initial residual = 0.02069, Final residual = 0.00134989, No Iterations 5
smoothSolver:  Solving for Uy, Initial residual = 0.16923, Final residual = 0.0165139, No Iterations 3
Pressure gradient source: uncorrected Ubar = 0.999674, pressure gradient = 1.63511
GAMG:  Solving for p, Initial residual = 0.131955, Final residual = 0.0119686, No Iterations 9
time step continuity errors : sum local = 0.0024109, global = 3.83799e-17, cumulative = -7.96168e-17
Pressure gradient source: uncorrected Ubar = 0.999857, pressure gradient = 1.61457
smoothSolver:  Solving for omega, Initial residual = 0.000411572, Final residual = 3.79927e-05, No Iterations 4
smoothSolver:  Solving for k, Initial residual = 0.0487364, Final residual = 0.00364752, No Iterations 5
ExecutionTime = 0.046536 s  ClockTime = 0 s

Time = 14s

smoothSolver:  Solving for Ux, Initial residual = 0.0188875, Final residual = 0.00125368, No Iterations 5
smoothSolver:  Solving for Uy, Initial residual = 0.180657, Final residual = 0.0120842, No Iterations 4
Pressure gradient source: uncorrected Ubar = 1.00053, pressure gradient = 1.54824
GAMG:  Solving for p, Initial residual = 0.110916, Final residual = 0.00962396, No Iterations 10
time step continuity errors : sum local = 0.00193122, global = 2.21846e-17, cumulative = -5.74322e-17
Pressure gradient source: uncorrected Ubar = 0.999966, pressure gradient = 1.61885
smoothSolver:  Solving for omega, Initial residual = 0.000361121, Final residual = 2.43356e-05, No Iterations 5
smoothSolver:  Solving for k, Initial residual = 0.0414772, Final residual = 0.00336926, No Iterations 5
ExecutionTime = 0.049376 s  ClockTime = 0 s

Time = 15s

smoothSolver:  Solving for Ux, Initial residual = 0.0174294, Final residual = 0.00117325, No Iterations 5
smoothSolver:  Solving for Uy, Initial residual = 0.182207, Final residual = 0.0150445, No Iterations 4
Pressure gradient source: uncorrected Ubar = 1.00152, pressure gradient = 1.41186
GAMG:  Solving for p, Initial residual = 0.0901609, Final residual = 0.00849869, No Iterations 8
time step continuity errors : sum local = 0.00185299, global = 1.60013e-17, cumulative = -4.14309e-17
Pressure gradient source: uncorrected Ubar = 1.00008, pressure gradient = 1.60854
smoothSolver:  Solving for omega, Initial residual = 0.000333795, Final residual = 2.23258e-05, No Iterations 5
smoothSolver:  Solving for k, Initial residual = 0.0360671, Final residual = 0.00314103, No Iterations 5
ExecutionTime = 0.052119 s  ClockTime = 0 s

Time = 16s

smoothSolver:  Solving for Ux, Initial residual = 0.0162398, Final residual = 0.00111198, No Iterations 5
smoothSolver:  Solving for Uy, Initial residual = 0.186108, Final residual = 0.015866, No Iterations 4
Pressure gradient source: uncorrected Ubar = 1.00234, pressure gradient = 1.25914
GAMG:  Solving for p, Initial residual = 0.0690402, Final residual = 0.00620946, No Iterations 11
time step continuity errors : sum local = 0.00147956, global = 8.15894e-18, cumulative = -3.32719e-17
Pressure gradient source: uncorrected Ubar = 1.00018, pressure gradient = 1.58242
smoothSolver:  Solving for omega, Initial residual = 0.000306846, Final residual = 2.49376e-05, No Iterations 5
smoothSolver:  Solving for k, Initial residual = 0.0314786, Final residual = 0.00289352, No Iterations 5
ExecutionTime = 0.054997 s  ClockTime = 0 s

Time = 17s

smoothSolver:  Solving for Ux, Initial residual = 0.0152232, Final residual = 0.00105564, No Iterations 5
smoothSolver:  Solving for Uy, Initial residual = 0.17441, Final residual = 0.0170601, No Iterations 4
Pressure gradient source: uncorrected Ubar = 1.00208, pressure gradient = 1.2484
GAMG:  Solving for p, Initial residual = 0.0590456, Final residual = 0.00559618, No Iterations 9
time step continuity errors : sum local = 0.00131141, global = 3.33256e-17, cumulative = 5.36308e-20
Pressure gradient source: uncorrected Ubar = 1.00015, pressure gradient = 1.55786
smoothSolver:  Solving for omega, Initial residual = 0.000284108, Final residual = 2.33634e-05, No Iterations 5
smoothSolver:  Solving for k, Initial residual = 0.0277809, Final residual = 0.00266042, No Iterations 5
ExecutionTime = 0.057789 s  ClockTime = 0 s

Time = 18s

smoothSolver:  Solving for Ux, Initial residual = 0.014355, Final residual = 0.00101157, No Iterations 5
smoothSolver:  Solving for Uy, Initial residual = 0.171832, Final residual = 0.011157, No Iterations 5
Pressure gradient source: uncorrected Ubar = 1.00215, pressure gradient = 1.18689
GAMG:  Solving for p, Initial residual = 0.0550416, Final residual = 0.00531228, No Iterations 8
time step continuity errors : sum local = 0.00112354, global = -1.48061e-18, cumulative = -1.42698e-18
Pressure gradient source: uncorrected Ubar = 1.00016, pressure gradient = 1.52979
smoothSolver:  Solving for omega, Initial residual = 0.000266301, Final residual = 2.32705e-05, No Iterations 5
smoothSolver:  Solving for k, Initial residual = 0.0245584, Final residual = 0.00244123, No Iterations 5
ExecutionTime = 0.060558 s  ClockTime = 0 s

Time = 19s

smoothSolver:  Solving for Ux, Initial residual = 0.0136179, Final residual = 0.000969991, No Iterations 5
smoothSolver:  Solving for Uy, Initial residual = 0.193442, Final residual = 0.0118752, No Iterations 5
Pressure gradient source: uncorrected Ubar = 1.00232, pressure gradient = 1.10262
GAMG:  Solving for p, Initial residual = 0.0489051, Final residual = 0.00308576, No Iterations 10
time step continuity errors : sum local = 0.000539078, global = -3.05338e-17, cumulative = -3.19608e-17
Pressure gradient source: uncorrected Ubar = 1.00019, pressure gradient = 1.49495
smoothSolver:  Solving for omega, Initial residual = 0.000259547, Final residual = 2.28511e-05, No Iterations 5
smoothSolver:  Solving for k, Initial residual = 0.0219162, Final residual = 0.00143063, No Iterations 6
ExecutionTime = 0.063393 s  ClockTime = 0 s

Time = 20s

smoothSolver:  Solving for Ux, Initial residual = 0.0129409, Final residual = 0.000935216, No Iterations 5
smoothSolver:  Solving for Uy, Initial residual = 0.198358, Final residual = 0.0123042, No Iterations 5
Pressure gradient source: uncorrected Ubar = 1.00234, pressure gradient = 1.03354
GAMG:  Solving for p, Initial residual = 0.0375596, Final residual = 0.00325052, No Iterations 10
time step continuity errors : sum local = 0.000352306, global = -2.28667e-18, cumulative = -3.42475e-17
Pressure gradient source: uncorrected Ubar = 1.00019, pressure gradient = 1.45742
smoothSolver:  Solving for omega, Initial residual = 0.000242625, Final residual = 2.29699e-05, No Iterations 5
smoothSolver:  Solving for k, Initial residual = 0.0196351, Final residual = 0.00131885, No Iterations 6
ExecutionTime = 0.066263 s  ClockTime = 0 s

Time = 21s

smoothSolver:  Solving for Ux, Initial residual = 0.0123558, Final residual = 0.000902375, No Iterations 5
smoothSolver:  Solving for Uy, Initial residual = 0.194977, Final residual = 0.0128744, No Iterations 5
Pressure gradient source: uncorrected Ubar = 1.00219, pressure gradient = 0.999143
GAMG:  Solving for p, Initial residual = 0.0401287, Final residual = 0.0035867, No Iterations 12
time step continuity errors : sum local = 0.000334027, global = -2.3517e-17, cumulative = -5.77645e-17
Pressure gradient source: uncorrected Ubar = 1.00017, pressure gradient = 1.42094
smoothSolver:  Solving for omega, Initial residual = 0.000230931, Final residual = 2.30696e-05, No Iterations 5
smoothSolver:  Solving for k, Initial residual = 0.0175589, Final residual = 0.0011994, No Iterations 6
ExecutionTime = 0.06931 s  ClockTime = 0 s

Time = 22s

smoothSolver:  Solving for Ux, Initial residual = 0.0118405, Final residual = 0.000873516, No Iterations 5
smoothSolver:  Solving for Uy, Initial residual = 0.17152, Final residual = 0.0122686, No Iterations 5
Pressure gradient source: uncorrected Ubar = 1.00193, pressure gradient = 0.997224
GAMG:  Solving for p, Initial residual = 0.0473611, Final residual = 0.00453922, No Iterations 14
time step continuity errors : sum local = 0.000303661, global = -1.20515e-17, cumulative = -6.98161e-17
Pressure gradient source: uncorrected Ubar = 1.00015, pressure gradient = 1.38887
smoothSolver:  Solving for omega, Initial residual = 0.000219368, Final residual = 1.4798e-05, No Iterations 6
smoothSolver:  Solving for k, Initial residual = 0.0158615, Final residual = 0.00110114, No Iterations 6
ExecutionTime = 0.07243 s  ClockTime = 0 s

Time = 23s

smoothSolver:  Solving for Ux, Initial residual = 0.0113617, Final residual = 0.000848087, No Iterations 5
smoothSolver:  Solving for Uy, Initial residual = 0.153107, Final residual = 0.0119117, No Iterations 5
Pressure gradient source: uncorrected Ubar = 1.00174, pressure gradient = 0.9893
GAMG:  Solving for p, Initial residual = 0.0539576, Final residual = 0.00510408, No Iterations 18
time step continuity errors : sum local = 0.000196888, global = -7.67412e-18, cumulative = -7.74902e-17
Pressure gradient source: uncorrected Ubar = 1.00013, pressure gradient = 1.36016
smoothSolver:  Solving for omega, Initial residual = 0.00020907, Final residual = 1.38279e-05, No Iterations 6
smoothSolver:  Solving for k, Initial residual = 0.0144794, Final residual = 0.00103517, No Iterations 6
ExecutionTime = 0.075674 s  ClockTime = 0 s

Time = 24s

smoothSolver:  Solving for Ux, Initial residual = 0.0109438, Final residual = 0.000823449, No Iterations 5
smoothSolver:  Solving for Uy, Initial residual = 0.144887, Final residual = 0.0118258, No Iterations 5
Pressure gradient source: uncorrected Ubar = 1.00169, pressure gradient = 0.954699
GAMG:  Solving for p, Initial residual = 0.106317, Final residual = 0.0097124, No Iterations 20
time step continuity errors : sum local = 0.00013342, global = 1.78571e-17, cumulative = -5.9633e-17
Pressure gradient source: uncorrected Ubar = 1.00012, pressure gradient = 1.33107
smoothSolver:  Solving for omega, Initial residual = 0.000201974, Final residual = 1.41716e-05, No Iterations 6
smoothSolver:  Solving for k, Initial residual = 0.0132072, Final residual = 0.000959711, No Iterations 6
ExecutionTime = 0.079014 s  ClockTime = 0 s

Time = 25s

smoothSolver:  Solving for Ux, Initial residual = 0.0105518, Final residual = 0.000800437, No Iterations 5
smoothSolver:  Solving for Uy, Initial residual = 0.148094, Final residual = 0.0122023, No Iterations 5
Pressure gradient source: uncorrected Ubar = 1.00148, pressure gradient = 0.959069
GAMG:  Solving for p, Initial residual = 0.059401, Final residual = 0.00556607, No Iterations 16
time step continuity errors : sum local = 0.000104633, global = -9.76967e-18, cumulative = -6.94027e-17
Pressure gradient source: uncorrected Ubar = 1.0001, pressure gradient = 1.30628
smoothSolver:  Solving for omega, Initial residual = 0.000193767, Final residual = 1.36262e-05, No Iterations 6
smoothSolver:  Solving for k, Initial residual = 0.012109, Final residual = 0.000884914, No Iterations 6
ExecutionTime = 0.082142 s  ClockTime = 0 s

Time = 26s

smoothSolver:  Solving for Ux, Initial residual = 0.010194, Final residual = 0.000781446, No Iterations 5
smoothSolver:  Solving for Uy, Initial residual = 0.131284, Final residual = 0.0110874, No Iterations 5
Pressure gradient source: uncorrected Ubar = 1.00134, pressure gradient = 0.957473
GAMG:  Solving for p, Initial residual = 0.0413299, Final residual = 0.0036074, No Iterations 15
time step continuity errors : sum local = 8.30338e-05, global = -1.97969e-17, cumulative = -8.91995e-17
Pressure gradient source: uncorrected Ubar = 1.00008, pressure gradient = 1.28446
smoothSolver:  Solving for omega, Initial residual = 0.00018683, Final residual = 1.36866e-05, No Iterations 6
smoothSolver:  Solving for k, Initial residual = 0.0112622, Final residual = 0.000816011, No Iterations 6
ExecutionTime = 0.08526 s  ClockTime = 0 s

Time = 27s

smoothSolver:  Solving for Ux, Initial residual = 0.00987143, Final residual = 0.000762071, No Iterations 5
smoothSolver:  Solving for Uy, Initial residual = 0.129592, Final residual = 0.0109531, No Iterations 5
Pressure gradient source: uncorrected Ubar = 1.00121, pressure gradient = 0.955794
GAMG:  Solving for p, Initial residual = 0.0322855, Final residual = 0.00243269, No Iterations 4
time step continuity errors : sum local = 4.95843e-05, global = 3.90227e-18, cumulative = -8.52973e-17
Pressure gradient source: uncorrected Ubar = 1.00007, pressure gradient = 1.26523
smoothSolver:  Solving for omega, Initial residual = 0.000181332, Final residual = 1.30317e-05, No Iterations 6
smoothSolver:  Solving for k, Initial residual = 0.0106015, Final residual = 0.000759305, No Iterations 6
ExecutionTime = 0.087948 s  ClockTime = 0 s

Time = 28s

smoothSolver:  Solving for Ux, Initial residual = 0.00957396, Final residual = 0.000741186, No Iterations 5
smoothSolver:  Solving for Uy, Initial residual = 0.136451, Final residual = 0.0121133, No Iterations 5
Pressure gradient source: uncorrected Ubar = 1.00109, pressure gradient = 0.955957
GAMG:  Solving for p, Initial residual = 0.0257746, Final residual = 0.0022665, No Iterations 4
time step continuity errors : sum local = 4.22538e-05, global = 1.68299e-18, cumulative = -8.36143e-17
Pressure gradient source: uncorrected Ubar = 1.00006, pressure gradient = 1.2485
smoothSolver:  Solving for omega, Initial residual = 0.0001774, Final residual = 1.33009e-05, No Iterations 6
smoothSolver:  Solving for k, Initial residual = 0.0099427, Final residual = 0.00070661, No Iterations 6
ExecutionTime = 0.090658 s  ClockTime = 0 s

Time = 29s

smoothSolver:  Solving for Ux, Initial residual = 0.00928679, Final residual = 0.000715352, No Iterations 5
smoothSolver:  Solving for Uy, Initial residual = 0.130954, Final residual = 0.0116124, No Iterations 5
Pressure gradient source: uncorrected Ubar = 1.00094, pressure gradient = 0.972226
GAMG:  Solving for p, Initial residual = 0.0236166, Final residual = 0.0018878, No Iterations 9
time step continuity errors : sum local = 4.34145e-05, global = -1.11241e-17, cumulative = -9.47384e-17
Pressure gradient source: uncorrected Ubar = 1.00004, pressure gradient = 1.23581
smoothSolver:  Solving for omega, Initial residual = 0.000173462, Final residual = 1.28845e-05, No Iterations 6
smoothSolver:  Solving for k, Initial residual = 0.00928605, Final residual = 0.000655462, No Iterations 6
ExecutionTime = 0.093572 s  ClockTime = 0 s

Time = 30s

smoothSolver:  Solving for Ux, Initial residual = 0.0089459, Final residual = 0.000689771, No Iterations 5
smoothSolver:  Solving for Uy, Initial residual = 0.110274, Final residual = 0.00947103, No Iterations 5
Pressure gradient source: uncorrected Ubar = 1.00084, pressure gradient = 0.981692
GAMG:  Solving for p, Initial residual = 0.019178, Final residual = 0.00158147, No Iterations 11
time step continuity errors : sum local = 3.82964e-05, global = 2.71051e-20, cumulative = -9.47113e-17
Pressure gradient source: uncorrected Ubar = 1.00003, pressure gradient = 1.22579
smoothSolver:  Solving for omega, Initial residual = 0.000168846, Final residual = 1.25835e-05, No Iterations 6
smoothSolver:  Solving for k, Initial residual = 0.00878902, Final residual = 0.000622322, No Iterations 6
ExecutionTime = 0.096492 s  ClockTime = 0 s

Time = 31s

smoothSolver:  Solving for Ux, Initial residual = 0.00862342, Final residual = 0.000666212, No Iterations 5
smoothSolver:  Solving for Uy, Initial residual = 0.0859678, Final residual = 0.00708314, No Iterations 5
Pressure gradient source: uncorrected Ubar = 1.00078, pressure gradient = 0.982292
GAMG:  Solving for p, Initial residual = 0.0183283, Final residual = 0.00180336, No Iterations 9
time step continuity errors : sum local = 4.13756e-05, global = 1.32496e-18, cumulative = -9.33863e-17
Pressure gradient source: uncorrected Ubar = 1.00003, pressure gradient = 1.21697
smoothSolver:  Solving for omega, Initial residual = 0.000165015, Final residual = 1.24991e-05, No Iterations 6
smoothSolver:  Solving for k, Initial residual = 0.00840505, Final residual = 0.000597713, No Iterations 6
ExecutionTime = 0.099287 s  ClockTime = 0 s

Time = 32s

smoothSolver:  Solving for Ux, Initial residual = 0.00831997, Final residual = 0.000644998, No Iterations 5
smoothSolver:  Solving for Uy, Initial residual = 0.0661716, Final residual = 0.00543005, No Iterations 5
Pressure gradient source: uncorrected Ubar = 1.0007, pressure gradient = 0.989548
GAMG:  Solving for p, Initial residual = 0.0151749, Final residual = 0.00147678, No Iterations 9
time step continuity errors : sum local = 3.46848e-05, global = -1.22159e-17, cumulative = -1.05602e-16
Pressure gradient source: uncorrected Ubar = 1.00002, pressure gradient = 1.20998
smoothSolver:  Solving for omega, Initial residual = 0.000160319, Final residual = 1.20136e-05, No Iterations 6
smoothSolver:  Solving for k, Initial residual = 0.0081057, Final residual = 0.000586891, No Iterations 6
ExecutionTime = 0.102088 s  ClockTime = 0 s

Time = 33s

smoothSolver:  Solving for Ux, Initial residual = 0.00804558, Final residual = 0.000625896, No Iterations 5
smoothSolver:  Solving for Uy, Initial residual = 0.0607214, Final residual = 0.00496286, No Iterations 5
Pressure gradient source: uncorrected Ubar = 1.0007, pressure gradient = 0.977824
GAMG:  Solving for p, Initial residual = 0.0133018, Final residual = 0.00126592, No Iterations 11
time step continuity errors : sum local = 2.9888e-05, global = -8.63582e-18, cumulative = -1.14238e-16
Pressure gradient source: uncorrected Ubar = 1.00002, pressure gradient = 1.20229
smoothSolver:  Solving for omega, Initial residual = 0.000156385, Final residual = 1.17159e-05, No Iterations 6
smoothSolver:  Solving for k, Initial residual = 0.00789726, Final residual = 0.00057807, No Iterations 6
ExecutionTime = 0.105028 s  ClockTime = 0 s

Time = 34s

smoothSolver:  Solving for Ux, Initial residual = 0.0077962, Final residual = 0.00060885, No Iterations 5
smoothSolver:  Solving for Uy, Initial residual = 0.0468508, Final residual = 0.00380123, No Iterations 5
Pressure gradient source: uncorrected Ubar = 1.00067, pressure gradient = 0.972652
GAMG:  Solving for p, Initial residual = 0.0114266, Final residual = 0.00109932, No Iterations 11
time step continuity errors : sum local = 2.64125e-05, global = 1.11359e-17, cumulative = -1.03102e-16
Pressure gradient source: uncorrected Ubar = 1.00002, pressure gradient = 1.1948
smoothSolver:  Solving for omega, Initial residual = 0.000152073, Final residual = 1.17125e-05, No Iterations 6
smoothSolver:  Solving for k, Initial residual = 0.00774582, Final residual = 0.000573512, No Iterations 6
ExecutionTime = 0.107932 s  ClockTime = 0 s

Time = 35s

smoothSolver:  Solving for Ux, Initial residual = 0.00756375, Final residual = 0.000593033, No Iterations 5
smoothSolver:  Solving for Uy, Initial residual = 0.0424618, Final residual = 0.00343602, No Iterations 5
Pressure gradient source: uncorrected Ubar = 1.00063, pressure gradient = 0.972267
GAMG:  Solving for p, Initial residual = 0.0101, Final residual = 0.00100405, No Iterations 13
time step continuity errors : sum local = 2.39043e-05, global = 5.1542e-18, cumulative = -9.79479e-17
Pressure gradient source: uncorrected Ubar = 1.00002, pressure gradient = 1.18806
smoothSolver:  Solving for omega, Initial residual = 0.000147652, Final residual = 1.12893e-05, No Iterations 6
smoothSolver:  Solving for k, Initial residual = 0.00761369, Final residual = 0.000568537, No Iterations 6
ExecutionTime = 0.110932 s  ClockTime = 0 s

Time = 36s

smoothSolver:  Solving for Ux, Initial residual = 0.00735427, Final residual = 0.000578774, No Iterations 5
smoothSolver:  Solving for Uy, Initial residual = 0.0372421, Final residual = 0.00312334, No Iterations 5
Pressure gradient source: uncorrected Ubar = 1.00061, pressure gradient = 0.965194
GAMG:  Solving for p, Initial residual = 0.00905859, Final residual = 0.00086392, No Iterations 13
time step continuity errors : sum local = 2.08936e-05, global = 2.5491e-17, cumulative = -7.24569e-17
Pressure gradient source: uncorrected Ubar = 1.00002, pressure gradient = 1.18117
smoothSolver:  Solving for omega, Initial residual = 0.000143351, Final residual = 1.09993e-05, No Iterations 6
smoothSolver:  Solving for k, Initial residual = 0.00752716, Final residual = 0.000568326, No Iterations 6
ExecutionTime = 0.113944 s  ClockTime = 0 s

Time = 37s

smoothSolver:  Solving for Ux, Initial residual = 0.00716465, Final residual = 0.0005668, No Iterations 5
smoothSolver:  Solving for Uy, Initial residual = 0.036164, Final residual = 0.0030911, No Iterations 5
Pressure gradient source: uncorrected Ubar = 1.00058, pressure gradient = 0.96183
GAMG:  Solving for p, Initial residual = 0.00780775, Final residual = 0.000770915, No Iterations 13
time step continuity errors : sum local = 1.83277e-05, global = -4.31352e-19, cumulative = -7.28882e-17
Pressure gradient source: uncorrected Ubar = 1.00002, pressure gradient = 1.17463
smoothSolver:  Solving for omega, Initial residual = 0.000139051, Final residual = 1.04827e-05, No Iterations 6
smoothSolver:  Solving for k, Initial residual = 0.00743185, Final residual = 0.00056237, No Iterations 6
ExecutionTime = 0.116982 s  ClockTime = 0 s

Time = 38s

smoothSolver:  Solving for Ux, Initial residual = 0.00698851, Final residual = 0.000555821, No Iterations 5
smoothSolver:  Solving for Uy, Initial residual = 0.0282929, Final residual = 0.00252004, No Iterations 5
Pressure gradient source: uncorrected Ubar = 1.00056, pressure gradient = 0.958231
GAMG:  Solving for p, Initial residual = 0.00852946, Final residual = 0.000844107, No Iterations 4
time step continuity errors : sum local = 2.00844e-05, global = -7.0363e-18, cumulative = -7.99245e-17
Pressure gradient source: uncorrected Ubar = 1.00002, pressure gradient = 1.16838
smoothSolver:  Solving for omega, Initial residual = 0.000135253, Final residual = 1.03936e-05, No Iterations 6
smoothSolver:  Solving for k, Initial residual = 0.00735457, Final residual = 0.000560444, No Iterations 6
ExecutionTime = 0.119537 s  ClockTime = 0 s

Time = 39s

smoothSolver:  Solving for Ux, Initial residual = 0.00682069, Final residual = 0.000545273, No Iterations 5
smoothSolver:  Solving for Uy, Initial residual = 0.027453, Final residual = 0.00253834, No Iterations 5
Pressure gradient source: uncorrected Ubar = 1.00053, pressure gradient = 0.956652
GAMG:  Solving for p, Initial residual = 0.00663452, Final residual = 0.000631714, No Iterations 15
time step continuity errors : sum local = 1.52902e-05, global = 2.59277e-18, cumulative = -7.73318e-17
Pressure gradient source: uncorrected Ubar = 1.00001, pressure gradient = 1.16263
smoothSolver:  Solving for omega, Initial residual = 0.000131146, Final residual = 1.00076e-05, No Iterations 6
smoothSolver:  Solving for k, Initial residual = 0.0073028, Final residual = 0.000564915, No Iterations 6
ExecutionTime = 0.12267 s  ClockTime = 0 s

Time = 40s

smoothSolver:  Solving for Ux, Initial residual = 0.00666368, Final residual = 0.000535281, No Iterations 5
smoothSolver:  Solving for Uy, Initial residual = 0.02625, Final residual = 0.00172532, No Iterations 6
Pressure gradient source: uncorrected Ubar = 1.00052, pressure gradient = 0.9494
GAMG:  Solving for p, Initial residual = 0.00633335, Final residual = 0.000623671, No Iterations 17
time step continuity errors : sum local = 1.5081e-05, global = 1.73854e-17, cumulative = -5.99464e-17
Pressure gradient source: uncorrected Ubar = 1.00001, pressure gradient = 1.15666
smoothSolver:  Solving for omega, Initial residual = 0.000127584, Final residual = 9.93789e-06, No Iterations 6
smoothSolver:  Solving for k, Initial residual = 0.00725233, Final residual = 0.000565026, No Iterations 6
ExecutionTime = 0.125942 s  ClockTime = 0 s

Time = 41s

smoothSolver:  Solving for Ux, Initial residual = 0.00652384, Final residual = 0.000526638, No Iterations 5
smoothSolver:  Solving for Uy, Initial residual = 0.0266177, Final residual = 0.00256796, No Iterations 5
Pressure gradient source: uncorrected Ubar = 1.0005, pressure gradient = 0.946163
GAMG:  Solving for p, Initial residual = 0.00600797, Final residual = 0.000554011, No Iterations 19
time step continuity errors : sum local = 1.32179e-05, global = -1.61741e-17, cumulative = -7.61205e-17
Pressure gradient source: uncorrected Ubar = 1.00001, pressure gradient = 1.15098
smoothSolver:  Solving for omega, Initial residual = 0.000123583, Final residual = 9.48942e-06, No Iterations 6
smoothSolver:  Solving for k, Initial residual = 0.00718883, Final residual = 0.000563762, No Iterations 6
ExecutionTime = 0.129306 s  ClockTime = 0 s

Time = 42s

smoothSolver:  Solving for Ux, Initial residual = 0.00639062, Final residual = 0.000518567, No Iterations 5
smoothSolver:  Solving for Uy, Initial residual = 0.0277635, Final residual = 0.00273109, No Iterations 5
Pressure gradient source: uncorrected Ubar = 1.0005, pressure gradient = 0.938527
GAMG:  Solving for p, Initial residual = 0.00577976, Final residual = 0.000576791, No Iterations 8
time step continuity errors : sum local = 1.22063e-05, global = -1.4231e-17, cumulative = -9.03515e-17
Pressure gradient source: uncorrected Ubar = 1.00001, pressure gradient = 1.14503
smoothSolver:  Solving for omega, Initial residual = 0.000120098, Final residual = 9.39871e-06, No Iterations 6
smoothSolver:  Solving for k, Initial residual = 0.00713669, Final residual = 0.000561708, No Iterations 6
ExecutionTime = 0.132118 s  ClockTime = 0 s

Time = 43s

smoothSolver:  Solving for Ux, Initial residual = 0.00626066, Final residual = 0.000510661, No Iterations 5
smoothSolver:  Solving for Uy, Initial residual = 0.0288692, Final residual = 0.00283952, No Iterations 5
Pressure gradient source: uncorrected Ubar = 1.00049, pressure gradient = 0.932267
GAMG:  Solving for p, Initial residual = 0.00592567, Final residual = 0.000558308, No Iterations 18
time step continuity errors : sum local = 1.17601e-05, global = 5.01867e-18, cumulative = -8.53328e-17
Pressure gradient source: uncorrected Ubar = 1.00001, pressure gradient = 1.139
smoothSolver:  Solving for omega, Initial residual = 0.000116667, Final residual = 9.12765e-06, No Iterations 6
smoothSolver:  Solving for k, Initial residual = 0.00706345, Final residual = 0.000558483, No Iterations 6
ExecutionTime = 0.135377 s  ClockTime = 0 s

Time = 44s

smoothSolver:  Solving for Ux, Initial residual = 0.00613823, Final residual = 0.000503187, No Iterations 5
smoothSolver:  Solving for Uy, Initial residual = 0.027391, Final residual = 0.00273302, No Iterations 5
Pressure gradient source: uncorrected Ubar = 1.00049, pressure gradient = 0.917632
GAMG:  Solving for p, Initial residual = 0.00568061, Final residual = 0.000543765, No Iterations 20
time step continuity errors : sum local = 1.08743e-05, global = 1.0601e-17, cumulative = -7.47318e-17
Pressure gradient source: uncorrected Ubar = 1.00002, pressure gradient = 1.13183
smoothSolver:  Solving for omega, Initial residual = 0.000113185, Final residual = 8.85948e-06, No Iterations 6
smoothSolver:  Solving for k, Initial residual = 0.00702053, Final residual = 0.000557002, No Iterations 6
ExecutionTime = 0.138747 s  ClockTime = 0 s

Time = 45s

smoothSolver:  Solving for Ux, Initial residual = 0.00602775, Final residual = 0.00049668, No Iterations 5
smoothSolver:  Solving for Uy, Initial residual = 0.0296343, Final residual = 0.00296142, No Iterations 5
Pressure gradient source: uncorrected Ubar = 1.00047, pressure gradient = 0.916937
GAMG:  Solving for p, Initial residual = 0.0058755, Final residual = 0.000528309, No Iterations 20
time step continuity errors : sum local = 9.78242e-06, global = 2.29753e-17, cumulative = -5.17564e-17
Pressure gradient source: uncorrected Ubar = 1.00001, pressure gradient = 1.12542
smoothSolver:  Solving for omega, Initial residual = 0.000109923, Final residual = 8.60882e-06, No Iterations 6
smoothSolver:  Solving for k, Initial residual = 0.00697046, Final residual = 0.000555199, No Iterations 6
ExecutionTime = 0.142108 s  ClockTime = 0 s

Time = 46s

smoothSolver:  Solving for Ux, Initial residual = 0.00592062, Final residual = 0.000490412, No Iterations 5
smoothSolver:  Solving for Uy, Initial residual = 0.0282084, Final residual = 0.00185455, No Iterations 6
Pressure gradient source: uncorrected Ubar = 1.00045, pressure gradient = 0.917517
GAMG:  Solving for p, Initial residual = 0.00567679, Final residual = 0.000492184, No Iterations 15
time step continuity errors : sum local = 8.54258e-06, global = 1.84103e-17, cumulative = -3.33462e-17
Pressure gradient source: uncorrected Ubar = 1.00001, pressure gradient = 1.11986
smoothSolver:  Solving for omega, Initial residual = 0.000106793, Final residual = 8.37914e-06, No Iterations 6
smoothSolver:  Solving for k, Initial residual = 0.00691733, Final residual = 0.000554521, No Iterations 6
ExecutionTime = 0.145306 s  ClockTime = 0 s

Time = 47s

smoothSolver:  Solving for Ux, Initial residual = 0.00581816, Final residual = 0.000483918, No Iterations 5
smoothSolver:  Solving for Uy, Initial residual = 0.0277484, Final residual = 0.00186243, No Iterations 6
Pressure gradient source: uncorrected Ubar = 1.00043, pressure gradient = 0.912844
GAMG:  Solving for p, Initial residual = 0.00645623, Final residual = 0.000624604, No Iterations 11
time step continuity errors : sum local = 1.00781e-05, global = -1.15256e-17, cumulative = -4.48718e-17
Pressure gradient source: uncorrected Ubar = 1.00001, pressure gradient = 1.1144
smoothSolver:  Solving for omega, Initial residual = 0.000103924, Final residual = 8.15987e-06, No Iterations 6
smoothSolver:  Solving for k, Initial residual = 0.00687555, Final residual = 0.000553228, No Iterations 6
ExecutionTime = 0.14833 s  ClockTime = 0 s

Time = 48s

smoothSolver:  Solving for Ux, Initial residual = 0.0057196, Final residual = 0.000477599, No Iterations 5
smoothSolver:  Solving for Uy, Initial residual = 0.0246506, Final residual = 0.00165459, No Iterations 6
Pressure gradient source: uncorrected Ubar = 1.00042, pressure gradient = 0.911521
GAMG:  Solving for p, Initial residual = 0.00581415, Final residual = 0.000565845, No Iterations 20
time step continuity errors : sum local = 8.60449e-06, global = 1.06972e-17, cumulative = -3.41746e-17
Pressure gradient source: uncorrected Ubar = 1.00001, pressure gradient = 1.10946
smoothSolver:  Solving for omega, Initial residual = 0.000100992, Final residual = 7.98234e-06, No Iterations 6
smoothSolver:  Solving for k, Initial residual = 0.00683144, Final residual = 0.000552464, No Iterations 6
ExecutionTime = 0.151682 s  ClockTime = 0 s

Time = 49s

smoothSolver:  Solving for Ux, Initial residual = 0.00562426, Final residual = 0.000471957, No Iterations 5
smoothSolver:  Solving for Uy, Initial residual = 0.0261773, Final residual = 0.00179953, No Iterations 6
Pressure gradient source: uncorrected Ubar = 1.0004, pressure gradient = 0.909934
GAMG:  Solving for p, Initial residual = 0.00577448, Final residual = 0.000515495, No Iterations 22
time step continuity errors : sum local = 7.18073e-06, global = -2.56977e-17, cumulative = -5.98723e-17
Pressure gradient source: uncorrected Ubar = 1.00001, pressure gradient = 1.10496
smoothSolver:  Solving for omega, Initial residual = 9.82768e-05, Final residual = 7.81061e-06, No Iterations 6
smoothSolver:  Solving for k, Initial residual = 0.00676691, Final residual = 0.000547605, No Iterations 6
ExecutionTime = 0.155149 s  ClockTime = 0 s

Time = 50s

smoothSolver:  Solving for Ux, Initial residual = 0.00553684, Final residual = 0.000466663, No Iterations 5
smoothSolver:  Solving for Uy, Initial residual = 0.0255195, Final residual = 0.0017936, No Iterations 6
Pressure gradient source: uncorrected Ubar = 1.00039, pressure gradient = 0.90892
GAMG:  Solving for p, Initial residual = 0.00688449, Final residual = 0.000623107, No Iterations 20
time step continuity errors : sum local = 7.76218e-06, global = 1.22185e-18, cumulative = -5.86504e-17
Pressure gradient source: uncorrected Ubar = 1.00001, pressure gradient = 1.10091
smoothSolver:  Solving for omega, Initial residual = 9.56528e-05, Final residual = 7.59671e-06, No Iterations 6
smoothSolver:  Solving for k, Initial residual = 0.00670263, Final residual = 0.000540112, No Iterations 6
ExecutionTime = 0.1585 s  ClockTime = 0 s

Time = 51s

smoothSolver:  Solving for Ux, Initial residual = 0.00545148, Final residual = 0.000461441, No Iterations 5
smoothSolver:  Solving for Uy, Initial residual = 0.0258223, Final residual = 0.00178836, No Iterations 6
Pressure gradient source: uncorrected Ubar = 1.00037, pressure gradient = 0.909376
GAMG:  Solving for p, Initial residual = 0.00807328, Final residual = 0.000788591, No Iterations 18
time step continuity errors : sum local = 8.72123e-06, global = -1.61004e-17, cumulative = -7.47508e-17
Pressure gradient source: uncorrected Ubar = 1.00001, pressure gradient = 1.09746
smoothSolver:  Solving for omega, Initial residual = 9.30524e-05, Final residual = 7.35877e-06, No Iterations 6
smoothSolver:  Solving for k, Initial residual = 0.00666213, Final residual = 0.000535256, No Iterations 6
ExecutionTime = 0.161747 s  ClockTime = 0 s

Time = 52s

smoothSolver:  Solving for Ux, Initial residual = 0.00536722, Final residual = 0.000456086, No Iterations 5
smoothSolver:  Solving for Uy, Initial residual = 0.0238901, Final residual = 0.00173146, No Iterations 6
Pressure gradient source: uncorrected Ubar = 1.00035, pressure gradient = 0.910818
GAMG:  Solving for p, Initial residual = 0.00844057, Final residual = 0.000761132, No Iterations 18
time step continuity errors : sum local = 7.47603e-06, global = 1.17356e-18, cumulative = -7.35773e-17
Pressure gradient source: uncorrected Ubar = 1.00001, pressure gradient = 1.09467
smoothSolver:  Solving for omega, Initial residual = 9.06072e-05, Final residual = 7.1535e-06, No Iterations 6
smoothSolver:  Solving for k, Initial residual = 0.00662389, Final residual = 0.000538719, No Iterations 6
ExecutionTime = 0.165041 s  ClockTime = 0 s

Time = 53s

smoothSolver:  Solving for Ux, Initial residual = 0.00528708, Final residual = 0.000450661, No Iterations 5
smoothSolver:  Solving for Uy, Initial residual = 0.0238909, Final residual = 0.00175519, No Iterations 6
Pressure gradient source: uncorrected Ubar = 1.00035, pressure gradient = 0.906017
GAMG:  Solving for p, Initial residual = 0.00890199, Final residual = 0.000858884, No Iterations 18
time step continuity errors : sum local = 7.15422e-06, global = -9.7629e-18, cumulative = -8.33402e-17
Pressure gradient source: uncorrected Ubar = 1.00001, pressure gradient = 1.0917
smoothSolver:  Solving for omega, Initial residual = 8.83719e-05, Final residual = 7.02977e-06, No Iterations 6
smoothSolver:  Solving for k, Initial residual = 0.00657786, Final residual = 0.000533699, No Iterations 6
ExecutionTime = 0.168315 s  ClockTime = 0 s

Time = 54s

smoothSolver:  Solving for Ux, Initial residual = 0.00520971, Final residual = 0.000446023, No Iterations 5
smoothSolver:  Solving for Uy, Initial residual = 0.0243195, Final residual = 0.00180732, No Iterations 6
Pressure gradient source: uncorrected Ubar = 1.00033, pressure gradient = 0.909188
GAMG:  Solving for p, Initial residual = 0.00969935, Final residual = 0.000893221, No Iterations 18
time step continuity errors : sum local = 6.46359e-06, global = 2.45936e-18, cumulative = -8.08808e-17
Pressure gradient source: uncorrected Ubar = 1, pressure gradient = 1.08958
smoothSolver:  Solving for omega, Initial residual = 8.61024e-05, Final residual = 6.84087e-06, No Iterations 6
smoothSolver:  Solving for k, Initial residual = 0.00654839, Final residual = 0.000536072, No Iterations 6
ExecutionTime = 0.171589 s  ClockTime = 0 s

Time = 55s

smoothSolver:  Solving for Ux, Initial residual = 0.00513714, Final residual = 0.000441487, No Iterations 5
smoothSolver:  Solving for Uy, Initial residual = 0.023961, Final residual = 0.00182573, No Iterations 6
Pressure gradient source: uncorrected Ubar = 1.00033, pressure gradient = 0.906065
GAMG:  Solving for p, Initial residual = 0.00941459, Final residual = 0.000905792, No Iterations 20
time step continuity errors : sum local = 5.60435e-06, global = -1.36927e-17, cumulative = -9.45735e-17
Pressure gradient source: uncorrected Ubar = 1, pressure gradient = 1.08741
smoothSolver:  Solving for omega, Initial residual = 8.39986e-05, Final residual = 6.71991e-06, No Iterations 6
smoothSolver:  Solving for k, Initial residual = 0.00650022, Final residual = 0.000531402, No Iterations 6
ExecutionTime = 0.174972 s  ClockTime = 0 s

Time = 56s

smoothSolver:  Solving for Ux, Initial residual = 0.00506541, Final residual = 0.000436844, No Iterations 5
smoothSolver:  Solving for Uy, Initial residual = 0.023794, Final residual = 0.00179926, No Iterations 6
Pressure gradient source: uncorrected Ubar = 1.00032, pressure gradient = 0.906239
GAMG:  Solving for p, Initial residual = 0.0112322, Final residual = 0.000993654, No Iterations 20
time step continuity errors : sum local = 4.98334e-06, global = 2.5757e-17, cumulative = -6.88165e-17
Pressure gradient source: uncorrected Ubar = 1, pressure gradient = 1.08563
smoothSolver:  Solving for omega, Initial residual = 8.1868e-05, Final residual = 9.87084e-06, No Iterations 5
smoothSolver:  Solving for k, Initial residual = 0.00643458, Final residual = 0.000521809, No Iterations 6
ExecutionTime = 0.178304 s  ClockTime = 0 s

Time = 57s

smoothSolver:  Solving for Ux, Initial residual = 0.00499769, Final residual = 0.00043255, No Iterations 5
smoothSolver:  Solving for Uy, Initial residual = 0.0230285, Final residual = 0.00176757, No Iterations 6
Pressure gradient source: uncorrected Ubar = 1.00032, pressure gradient = 0.897356
GAMG:  Solving for p, Initial residual = 0.0175656, Final residual = 0.00174149, No Iterations 14
time step continuity errors : sum local = 6.49593e-06, global = 9.93739e-18, cumulative = -5.88791e-17
Pressure gradient source: uncorrected Ubar = 1, pressure gradient = 1.08304
smoothSolver:  Solving for omega, Initial residual = 8.02395e-05, Final residual = 9.70198e-06, No Iterations 5
smoothSolver:  Solving for k, Initial residual = 0.00642372, Final residual = 0.000526024, No Iterations 6
ExecutionTime = 0.181369 s  ClockTime = 0 s

Time = 58s

smoothSolver:  Solving for Ux, Initial residual = 0.00493211, Final residual = 0.000428336, No Iterations 5
smoothSolver:  Solving for Uy, Initial residual = 0.0224621, Final residual = 0.00169525, No Iterations 6
Pressure gradient source: uncorrected Ubar = 1.00032, pressure gradient = 0.893157
GAMG:  Solving for p, Initial residual = 0.0211542, Final residual = 0.00187445, No Iterations 16
time step continuity errors : sum local = 5.35819e-06, global = -1.29384e-18, cumulative = -6.0173e-17
Pressure gradient source: uncorrected Ubar = 1, pressure gradient = 1.08036
smoothSolver:  Solving for omega, Initial residual = 7.85175e-05, Final residual = 9.45926e-06, No Iterations 5
smoothSolver:  Solving for k, Initial residual = 0.00639705, Final residual = 0.000522727, No Iterations 6
ExecutionTime = 0.184534 s  ClockTime = 0 s

Time = 59s

smoothSolver:  Solving for Ux, Initial residual = 0.00487051, Final residual = 0.00042461, No Iterations 5
smoothSolver:  Solving for Uy, Initial residual = 0.0225459, Final residual = 0.00173603, No Iterations 6
Pressure gradient source: uncorrected Ubar = 1.00031, pressure gradient = 0.889694
GAMG:  Solving for p, Initial residual = 0.0307654, Final residual = 0.00277814, No Iterations 16
time step continuity errors : sum local = 4.96886e-06, global = 4.07296e-18, cumulative = -5.61e-17
Pressure gradient source: uncorrected Ubar = 1, pressure gradient = 1.07769
smoothSolver:  Solving for omega, Initial residual = 7.69296e-05, Final residual = 9.3211e-06, No Iterations 5
smoothSolver:  Solving for k, Initial residual = 0.00637527, Final residual = 0.000526957, No Iterations 6
ExecutionTime = 0.187684 s  ClockTime = 0 s

Time = 60s

smoothSolver:  Solving for Ux, Initial residual = 0.00481119, Final residual = 0.000420832, No Iterations 5
smoothSolver:  Solving for Uy, Initial residual = 0.0230199, Final residual = 0.00176365, No Iterations 6
Pressure gradient source: uncorrected Ubar = 1.00031, pressure gradient = 0.885629
GAMG:  Solving for p, Initial residual = 0.0247145, Final residual = 0.00239542, No Iterations 14
time step continuity errors : sum local = 4.96928e-06, global = 2.34808e-17, cumulative = -3.26192e-17
Pressure gradient source: uncorrected Ubar = 1, pressure gradient = 1.07495
smoothSolver:  Solving for omega, Initial residual = 7.52674e-05, Final residual = 9.05036e-06, No Iterations 5
smoothSolver:  Solving for k, Initial residual = 0.00633367, Final residual = 0.000518631, No Iterations 6
ExecutionTime = 0.190733 s  ClockTime = 0 s

Time = 61s

smoothSolver:  Solving for Ux, Initial residual = 0.00475259, Final residual = 0.000417127, No Iterations 5
smoothSolver:  Solving for Uy, Initial residual = 0.0227107, Final residual = 0.00178001, No Iterations 6
Pressure gradient source: uncorrected Ubar = 1.00031, pressure gradient = 0.880541
GAMG:  Solving for p, Initial residual = 0.0179707, Final residual = 0.00169294, No Iterations 14
time step continuity errors : sum local = 4.78114e-06, global = -1.56638e-18, cumulative = -3.41856e-17
Pressure gradient source: uncorrected Ubar = 1, pressure gradient = 1.07204
smoothSolver:  Solving for omega, Initial residual = 7.37752e-05, Final residual = 8.97013e-06, No Iterations 5
smoothSolver:  Solving for k, Initial residual = 0.00630772, Final residual = 0.00051987, No Iterations 6
ExecutionTime = 0.193799 s  ClockTime = 0 s

Time = 62s

smoothSolver:  Solving for Ux, Initial residual = 0.00469478, Final residual = 0.000413317, No Iterations 5
smoothSolver:  Solving for Uy, Initial residual = 0.0239921, Final residual = 0.00184048, No Iterations 6
Pressure gradient source: uncorrected Ubar = 1.0003, pressure gradient = 0.874498
GAMG:  Solving for p, Initial residual = 0.0162915, Final residual = 0.00158747, No Iterations 12
time step continuity errors : sum local = 5.51345e-06, global = -5.10803e-18, cumulative = -3.92936e-17
Pressure gradient source: uncorrected Ubar = 1, pressure gradient = 1.06884
smoothSolver:  Solving for omega, Initial residual = 7.2202e-05, Final residual = 8.73226e-06, No Iterations 5
smoothSolver:  Solving for k, Initial residual = 0.00626247, Final residual = 0.000516483, No Iterations 6
ExecutionTime = 0.19674 s  ClockTime = 0 s

Time = 63s

smoothSolver:  Solving for Ux, Initial residual = 0.00463933, Final residual = 0.000409837, No Iterations 5
smoothSolver:  Solving for Uy, Initial residual = 0.0216147, Final residual = 0.00166203, No Iterations 6
Pressure gradient source: uncorrected Ubar = 1.00031, pressure gradient = 0.865771
GAMG:  Solving for p, Initial residual = 0.013404, Final residual = 0.00125604, No Iterations 12
time step continuity errors : sum local = 5.39448e-06, global = -5.83818e-19, cumulative = -3.98774e-17
Pressure gradient source: uncorrected Ubar = 1.00001, pressure gradient = 1.06505
smoothSolver:  Solving for omega, Initial residual = 7.07461e-05, Final residual = 8.58749e-06, No Iterations 5
smoothSolver:  Solving for k, Initial residual = 0.00625991, Final residual = 0.000520161, No Iterations 6
ExecutionTime = 0.199708 s  ClockTime = 0 s

Time = 64s

smoothSolver:  Solving for Ux, Initial residual = 0.00458685, Final residual = 0.000406591, No Iterations 5
smoothSolver:  Solving for Uy, Initial residual = 0.0196635, Final residual = 0.00148517, No Iterations 6
Pressure gradient source: uncorrected Ubar = 1.0003, pressure gradient = 0.859325
GAMG:  Solving for p, Initial residual = 0.00762258, Final residual = 0.00069173, No Iterations 16
time step continuity errors : sum local = 3.54942e-06, global = -3.63716e-18, cumulative = -4.35146e-17
Pressure gradient source: uncorrected Ubar = 1.00001, pressure gradient = 1.06104
smoothSolver:  Solving for omega, Initial residual = 6.92098e-05, Final residual = 8.34266e-06, No Iterations 5
smoothSolver:  Solving for k, Initial residual = 0.00623132, Final residual = 0.000515226, No Iterations 6
ExecutionTime = 0.202864 s  ClockTime = 0 s

Time = 65s

smoothSolver:  Solving for Ux, Initial residual = 0.00453714, Final residual = 0.000403438, No Iterations 5
smoothSolver:  Solving for Uy, Initial residual = 0.0190062, Final residual = 0.00148432, No Iterations 6
Pressure gradient source: uncorrected Ubar = 1.00031, pressure gradient = 0.850026
GAMG:  Solving for p, Initial residual = 0.00768183, Final residual = 0.000682563, No Iterations 10
time step continuity errors : sum local = 3.90953e-06, global = -7.19925e-19, cumulative = -4.42345e-17
Pressure gradient source: uncorrected Ubar = 1.00001, pressure gradient = 1.05648
smoothSolver:  Solving for omega, Initial residual = 6.79537e-05, Final residual = 8.24432e-06, No Iterations 5
smoothSolver:  Solving for k, Initial residual = 0.00620548, Final residual = 0.000515118, No Iterations 6
ExecutionTime = 0.205722 s  ClockTime = 0 s

Time = 66s

smoothSolver:  Solving for Ux, Initial residual = 0.00448793, Final residual = 0.000400311, No Iterations 5
smoothSolver:  Solving for Uy, Initial residual = 0.019931, Final residual = 0.00153438, No Iterations 6
Pressure gradient source: uncorrected Ubar = 1.0003, pressure gradient = 0.841965
GAMG:  Solving for p, Initial residual = 0.00581546, Final residual = 0.000547585, No Iterations 10
time step continuity errors : sum local = 3.33447e-06, global = -2.26138e-17, cumulative = -6.68483e-17
Pressure gradient source: uncorrected Ubar = 1.00001, pressure gradient = 1.05159
smoothSolver:  Solving for omega, Initial residual = 6.66357e-05, Final residual = 8.07149e-06, No Iterations 5
smoothSolver:  Solving for k, Initial residual = 0.00617456, Final residual = 0.000513281, No Iterations 6
ExecutionTime = 0.208573 s  ClockTime = 0 s

Time = 67s

smoothSolver:  Solving for Ux, Initial residual = 0.00443966, Final residual = 0.000397099, No Iterations 5
smoothSolver:  Solving for Uy, Initial residual = 0.0194366, Final residual = 0.00152934, No Iterations 6
Pressure gradient source: uncorrected Ubar = 1.00031, pressure gradient = 0.830014
GAMG:  Solving for p, Initial residual = 0.0060562, Final residual = 0.000514005, No Iterations 4
time step continuity errors : sum local = 3.23279e-06, global = 3.32524e-18, cumulative = -6.35231e-17
Pressure gradient source: uncorrected Ubar = 1.00001, pressure gradient = 1.04592
smoothSolver:  Solving for omega, Initial residual = 6.54647e-05, Final residual = 7.97025e-06, No Iterations 5
smoothSolver:  Solving for k, Initial residual = 0.0061497, Final residual = 0.000511936, No Iterations 6
ExecutionTime = 0.211154 s  ClockTime = 0 s

Time = 68s

smoothSolver:  Solving for Ux, Initial residual = 0.00439273, Final residual = 0.000394263, No Iterations 5
smoothSolver:  Solving for Uy, Initial residual = 0.0191827, Final residual = 0.00149198, No Iterations 6
Pressure gradient source: uncorrected Ubar = 1.00031, pressure gradient = 0.819666
GAMG:  Solving for p, Initial residual = 0.00593684, Final residual = 0.000372619, No Iterations 4
time step continuity errors : sum local = 2.41769e-06, global = -6.82094e-18, cumulative = -7.0344e-17
Pressure gradient source: uncorrected Ubar = 1.00001, pressure gradient = 1.03975
smoothSolver:  Solving for omega, Initial residual = 6.43187e-05, Final residual = 7.80043e-06, No Iterations 5
smoothSolver:  Solving for k, Initial residual = 0.00611607, Final residual = 0.000509402, No Iterations 6
ExecutionTime = 0.21373 s  ClockTime = 0 s

Time = 69s

smoothSolver:  Solving for Ux, Initial residual = 0.00434878, Final residual = 0.000391613, No Iterations 5
smoothSolver:  Solving for Uy, Initial residual = 0.0174682, Final residual = 0.00136651, No Iterations 6
Pressure gradient source: uncorrected Ubar = 1.00031, pressure gradient = 0.808317
GAMG:  Solving for p, Initial residual = 0.00509291, Final residual = 0.000379157, No Iterations 6
time step continuity errors : sum local = 2.52043e-06, global = 7.50831e-18, cumulative = -6.28357e-17
Pressure gradient source: uncorrected Ubar = 1.00001, pressure gradient = 1.03303
smoothSolver:  Solving for omega, Initial residual = 6.34142e-05, Final residual = 7.75287e-06, No Iterations 5
smoothSolver:  Solving for k, Initial residual = 0.00610353, Final residual = 0.000511673, No Iterations 6
ExecutionTime = 0.216386 s  ClockTime = 0 s

Time = 70s

smoothSolver:  Solving for Ux, Initial residual = 0.00430699, Final residual = 0.000389011, No Iterations 5
smoothSolver:  Solving for Uy, Initial residual = 0.016442, Final residual = 0.00127415, No Iterations 6
Pressure gradient source: uncorrected Ubar = 1.00031, pressure gradient = 0.79589
GAMG:  Solving for p, Initial residual = 0.00488942, Final residual = 0.000425763, No Iterations 8
time step continuity errors : sum local = 2.77678e-06, global = 1.62196e-17, cumulative = -4.66161e-17
Pressure gradient source: uncorrected Ubar = 1.00001, pressure gradient = 1.02567
smoothSolver:  Solving for omega, Initial residual = 6.25584e-05, Final residual = 7.586e-06, No Iterations 5
smoothSolver:  Solving for k, Initial residual = 0.00607139, Final residual = 0.000508054, No Iterations 6
ExecutionTime = 0.219144 s  ClockTime = 0 s

Time = 71s

smoothSolver:  Solving for Ux, Initial residual = 0.00426603, Final residual = 0.000386497, No Iterations 5
smoothSolver:  Solving for Uy, Initial residual = 0.0152511, Final residual = 0.00121197, No Iterations 6
Pressure gradient source: uncorrected Ubar = 1.00031, pressure gradient = 0.782944
GAMG:  Solving for p, Initial residual = 0.00461969, Final residual = 0.000414466, No Iterations 6
time step continuity errors : sum local = 2.74881e-06, global = -5.05234e-18, cumulative = -5.16684e-17
Pressure gradient source: uncorrected Ubar = 1.00001, pressure gradient = 1.01768
smoothSolver:  Solving for omega, Initial residual = 6.17574e-05, Final residual = 7.51798e-06, No Iterations 5
smoothSolver:  Solving for k, Initial residual = 0.00603902, Final residual = 0.000504791, No Iterations 6
ExecutionTime = 0.221879 s  ClockTime = 0 s

Time = 72s

smoothSolver:  Solving for Ux, Initial residual = 0.00422634, Final residual = 0.000383884, No Iterations 5
smoothSolver:  Solving for Uy, Initial residual = 0.0157603, Final residual = 0.00123842, No Iterations 6
Pressure gradient source: uncorrected Ubar = 1.00031, pressure gradient = 0.769916
GAMG:  Solving for p, Initial residual = 0.00559646, Final residual = 0.000500434, No Iterations 6
time step continuity errors : sum local = 2.99794e-06, global = 1.47667e-17, cumulative = -3.69017e-17
Pressure gradient source: uncorrected Ubar = 1.00001, pressure gradient = 1.00914
smoothSolver:  Solving for omega, Initial residual = 6.08946e-05, Final residual = 7.41714e-06, No Iterations 5
smoothSolver:  Solving for k, Initial residual = 0.00600719, Final residual = 0.000503292, No Iterations 6
ExecutionTime = 0.224581 s  ClockTime = 0 s

Time = 73s

smoothSolver:  Solving for Ux, Initial residual = 0.00418748, Final residual = 0.000381585, No Iterations 5
smoothSolver:  Solving for Uy, Initial residual = 0.0146078, Final residual = 0.00117134, No Iterations 6
Pressure gradient source: uncorrected Ubar = 1.00031, pressure gradient = 0.755349
GAMG:  Solving for p, Initial residual = 0.00405808, Final residual = 0.000383572, No Iterations 7
time step continuity errors : sum local = 2.61836e-06, global = 4.85297e-18, cumulative = -3.20487e-17
Pressure gradient source: uncorrected Ubar = 1.00001, pressure gradient = 0.999896
smoothSolver:  Solving for omega, Initial residual = 6.00124e-05, Final residual = 7.30419e-06, No Iterations 5
smoothSolver:  Solving for k, Initial residual = 0.00599184, Final residual = 0.000503751, No Iterations 6
ExecutionTime = 0.227281 s  ClockTime = 0 s

Time = 74s

smoothSolver:  Solving for Ux, Initial residual = 0.00414978, Final residual = 0.000379445, No Iterations 5
smoothSolver:  Solving for Uy, Initial residual = 0.0145013, Final residual = 0.00114763, No Iterations 6
Pressure gradient source: uncorrected Ubar = 1.00031, pressure gradient = 0.740019
GAMG:  Solving for p, Initial residual = 0.00373142, Final residual = 0.000254184, No Iterations 4
time step continuity errors : sum local = 2.01956e-06, global = 3.43758e-18, cumulative = -2.86111e-17
Pressure gradient source: uncorrected Ubar = 1.00001, pressure gradient = 0.98995
smoothSolver:  Solving for omega, Initial residual = 5.91181e-05, Final residual = 7.16382e-06, No Iterations 5
smoothSolver:  Solving for k, Initial residual = 0.00596587, Final residual = 0.000502308, No Iterations 6
ExecutionTime = 0.229881 s  ClockTime = 0 s

Time = 75s

smoothSolver:  Solving for Ux, Initial residual = 0.00411516, Final residual = 0.000377374, No Iterations 5
smoothSolver:  Solving for Uy, Initial residual = 0.0131571, Final residual = 0.00106408, No Iterations 6
Pressure gradient source: uncorrected Ubar = 1.00031, pressure gradient = 0.725377
GAMG:  Solving for p, Initial residual = 0.00316485, Final residual = 0.000248771, No Iterations 8
time step continuity errors : sum local = 2.08957e-06, global = 9.71441e-19, cumulative = -2.76397e-17
Pressure gradient source: uncorrected Ubar = 1.00001, pressure gradient = 0.979468
smoothSolver:  Solving for omega, Initial residual = 5.83076e-05, Final residual = 7.12247e-06, No Iterations 5
smoothSolver:  Solving for k, Initial residual = 0.00593199, Final residual = 0.00049876, No Iterations 6
ExecutionTime = 0.232708 s  ClockTime = 0 s

Time = 76s

smoothSolver:  Solving for Ux, Initial residual = 0.00408121, Final residual = 0.00037539, No Iterations 5
smoothSolver:  Solving for Uy, Initial residual = 0.013002, Final residual = 0.00103049, No Iterations 6
Pressure gradient source: uncorrected Ubar = 1.00031, pressure gradient = 0.710618
GAMG:  Solving for p, Initial residual = 0.00256677, Final residual = 0.000210036, No Iterations 4
time step continuity errors : sum local = 1.62507e-06, global = -9.01349e-18, cumulative = -3.66532e-17
Pressure gradient source: uncorrected Ubar = 1.00001, pressure gradient = 0.968498
smoothSolver:  Solving for omega, Initial residual = 5.7381e-05, Final residual = 6.9498e-06, No Iterations 5
smoothSolver:  Solving for k, Initial residual = 0.00590134, Final residual = 0.000497632, No Iterations 6
ExecutionTime = 0.235271 s  ClockTime = 0 s

Time = 77s

smoothSolver:  Solving for Ux, Initial residual = 0.00404803, Final residual = 0.000373326, No Iterations 5
smoothSolver:  Solving for Uy, Initial residual = 0.0118922, Final residual = 0.000962203, No Iterations 6
Pressure gradient source: uncorrected Ubar = 1.00031, pressure gradient = 0.694275
GAMG:  Solving for p, Initial residual = 0.00413628, Final residual = 0.00012855, No Iterations 4
time step continuity errors : sum local = 7.36173e-07, global = 2.24606e-18, cumulative = -3.44071e-17
Pressure gradient source: uncorrected Ubar = 1.00001, pressure gradient = 0.956889
smoothSolver:  Solving for omega, Initial residual = 5.65677e-05, Final residual = 6.87123e-06, No Iterations 5
smoothSolver:  Solving for k, Initial residual = 0.00586679, Final residual = 0.00049444, No Iterations 6
ExecutionTime = 0.237864 s  ClockTime = 0 s

Time = 78s

smoothSolver:  Solving for Ux, Initial residual = 0.00401625, Final residual = 0.000371381, No Iterations 5
smoothSolver:  Solving for Uy, Initial residual = 0.0113337, Final residual = 0.000897307, No Iterations 6
Pressure gradient source: uncorrected Ubar = 1.00031, pressure gradient = 0.678457
GAMG:  Solving for p, Initial residual = 0.00261301, Final residual = 0.000247358, No Iterations 7
time step continuity errors : sum local = 1.97376e-06, global = 3.68248e-19, cumulative = -3.40388e-17
Pressure gradient source: uncorrected Ubar = 1.00001, pressure gradient = 0.944788
smoothSolver:  Solving for omega, Initial residual = 5.57226e-05, Final residual = 6.77423e-06, No Iterations 5
smoothSolver:  Solving for k, Initial residual = 0.00584729, Final residual = 0.000495139, No Iterations 6
ExecutionTime = 0.240613 s  ClockTime = 0 s

Time = 79s

smoothSolver:  Solving for Ux, Initial residual = 0.00398429, Final residual = 0.000369792, No Iterations 5
smoothSolver:  Solving for Uy, Initial residual = 0.0103636, Final residual = 0.000835173, No Iterations 6
Pressure gradient source: uncorrected Ubar = 1.00031, pressure gradient = 0.661585
GAMG:  Solving for p, Initial residual = 0.00504919, Final residual = 0.000371257, No Iterations 4
time step continuity errors : sum local = 2.90357e-06, global = -1.16171e-17, cumulative = -4.56559e-17
Pressure gradient source: uncorrected Ubar = 1.00001, pressure gradient = 0.932113
smoothSolver:  Solving for omega, Initial residual = 5.49299e-05, Final residual = 6.66191e-06, No Iterations 5
smoothSolver:  Solving for k, Initial residual = 0.00581215, Final residual = 0.000491269, No Iterations 6
ExecutionTime = 0.243172 s  ClockTime = 0 s

Time = 80s

smoothSolver:  Solving for Ux, Initial residual = 0.00395623, Final residual = 0.000368229, No Iterations 5
smoothSolver:  Solving for Uy, Initial residual = 0.010092, Final residual = 0.000810427, No Iterations 6
Pressure gradient source: uncorrected Ubar = 1.00031, pressure gradient = 0.648131
GAMG:  Solving for p, Initial residual = 0.00329047, Final residual = 0.000294098, No Iterations 7
time step continuity errors : sum local = 1.82223e-06, global = 3.71382e-18, cumulative = -4.19421e-17
Pressure gradient source: uncorrected Ubar = 1.00001, pressure gradient = 0.919382
smoothSolver:  Solving for omega, Initial residual = 5.41687e-05, Final residual = 9.88138e-06, No Iterations 4
smoothSolver:  Solving for k, Initial residual = 0.00579055, Final residual = 0.000490639, No Iterations 6
ExecutionTime = 0.245917 s  ClockTime = 0 s

Time = 81s

smoothSolver:  Solving for Ux, Initial residual = 0.00393053, Final residual = 0.000367009, No Iterations 5
smoothSolver:  Solving for Uy, Initial residual = 0.00915164, Final residual = 0.000756544, No Iterations 6
Pressure gradient source: uncorrected Ubar = 1.00032, pressure gradient = 0.621702
GAMG:  Solving for p, Initial residual = 0.00258821, Final residual = 0.000124449, No Iterations 4
time step continuity errors : sum local = 8.81026e-07, global = 8.32821e-18, cumulative = -3.36139e-17
Pressure gradient source: uncorrected Ubar = 1.00002, pressure gradient = 0.904874
smoothSolver:  Solving for omega, Initial residual = 5.37107e-05, Final residual = 9.83542e-06, No Iterations 4
smoothSolver:  Solving for k, Initial residual = 0.00576461, Final residual = 0.000487779, No Iterations 6
ExecutionTime = 0.248472 s  ClockTime = 0 s

Time = 82s

smoothSolver:  Solving for Ux, Initial residual = 0.0039058, Final residual = 0.000365674, No Iterations 5
smoothSolver:  Solving for Uy, Initial residual = 0.00917128, Final residual = 0.000743609, No Iterations 6
Pressure gradient source: uncorrected Ubar = 1.00032, pressure gradient = 0.604496
GAMG:  Solving for p, Initial residual = 0.00263584, Final residual = 0.000200845, No Iterations 4
time step continuity errors : sum local = 1.37306e-06, global = -2.83587e-18, cumulative = -3.64497e-17
Pressure gradient source: uncorrected Ubar = 1.00002, pressure gradient = 0.890044
smoothSolver:  Solving for omega, Initial residual = 5.31724e-05, Final residual = 9.71877e-06, No Iterations 4
smoothSolver:  Solving for k, Initial residual = 0.0057504, Final residual = 0.000489493, No Iterations 6
ExecutionTime = 0.251062 s  ClockTime = 0 s

Time = 83s

smoothSolver:  Solving for Ux, Initial residual = 0.00388197, Final residual = 0.000364353, No Iterations 5
smoothSolver:  Solving for Uy, Initial residual = 0.00859463, Final residual = 0.000681763, No Iterations 6
Pressure gradient source: uncorrected Ubar = 1.00031, pressure gradient = 0.586249
GAMG:  Solving for p, Initial residual = 0.00398378, Final residual = 0.000297282, No Iterations 4
time step continuity errors : sum local = 2.06971e-06, global = -1.85258e-17, cumulative = -5.49755e-17
Pressure gradient source: uncorrected Ubar = 1.00002, pressure gradient = 0.874789
smoothSolver:  Solving for omega, Initial residual = 5.26431e-05, Final residual = 9.66428e-06, No Iterations 4
smoothSolver:  Solving for k, Initial residual = 0.00572332, Final residual = 0.000485949, No Iterations 6
ExecutionTime = 0.253626 s  ClockTime = 0 s

Time = 84s

smoothSolver:  Solving for Ux, Initial residual = 0.00385764, Final residual = 0.000363293, No Iterations 5
smoothSolver:  Solving for Uy, Initial residual = 0.00771346, Final residual = 0.000598741, No Iterations 6
Pressure gradient source: uncorrected Ubar = 1.00031, pressure gradient = 0.569951
GAMG:  Solving for p, Initial residual = 0.00413679, Final residual = 0.000397535, No Iterations 6
time step continuity errors : sum local = 2.9161e-06, global = 7.60953e-18, cumulative = -4.7366e-17
Pressure gradient source: uncorrected Ubar = 1.00002, pressure gradient = 0.859417
smoothSolver:  Solving for omega, Initial residual = 5.21846e-05, Final residual = 9.50881e-06, No Iterations 4
smoothSolver:  Solving for k, Initial residual = 0.00570132, Final residual = 0.000483891, No Iterations 6
ExecutionTime = 0.256281 s  ClockTime = 0 s

Time = 85s

smoothSolver:  Solving for Ux, Initial residual = 0.00383461, Final residual = 0.000362404, No Iterations 5
smoothSolver:  Solving for Uy, Initial residual = 0.00707522, Final residual = 0.000569532, No Iterations 6
Pressure gradient source: uncorrected Ubar = 1.00031, pressure gradient = 0.551603
GAMG:  Solving for p, Initial residual = 0.00315785, Final residual = 0.000299331, No Iterations 4
time step continuity errors : sum local = 2.1101e-06, global = 6.66191e-19, cumulative = -4.66998e-17
Pressure gradient source: uncorrected Ubar = 1.00002, pressure gradient = 0.843669
smoothSolver:  Solving for omega, Initial residual = 5.17049e-05, Final residual = 9.43921e-06, No Iterations 4
smoothSolver:  Solving for k, Initial residual = 0.00567365, Final residual = 0.000481972, No Iterations 6
ExecutionTime = 0.258837 s  ClockTime = 0 s

Time = 86s

smoothSolver:  Solving for Ux, Initial residual = 0.00381435, Final residual = 0.000361571, No Iterations 5
smoothSolver:  Solving for Uy, Initial residual = 0.00711429, Final residual = 0.000568067, No Iterations 6
Pressure gradient source: uncorrected Ubar = 1.00031, pressure gradient = 0.534413
GAMG:  Solving for p, Initial residual = 0.0030225, Final residual = 0.000300218, No Iterations 6
time step continuity errors : sum local = 2.21108e-06, global = 1.13209e-17, cumulative = -3.53789e-17
Pressure gradient source: uncorrected Ubar = 1.00002, pressure gradient = 0.827744
smoothSolver:  Solving for omega, Initial residual = 5.12527e-05, Final residual = 9.31987e-06, No Iterations 4
smoothSolver:  Solving for k, Initial residual = 0.00565004, Final residual = 0.000481114, No Iterations 6
ExecutionTime = 0.261536 s  ClockTime = 0 s

Time = 87s

smoothSolver:  Solving for Ux, Initial residual = 0.00379471, Final residual = 0.000360563, No Iterations 5
smoothSolver:  Solving for Uy, Initial residual = 0.00680103, Final residual = 0.000561863, No Iterations 6
Pressure gradient source: uncorrected Ubar = 1.0003, pressure gradient = 0.515504
GAMG:  Solving for p, Initial residual = 0.00287639, Final residual = 0.00019744, No Iterations 4
time step continuity errors : sum local = 1.11585e-06, global = -8.23761e-18, cumulative = -4.36165e-17
Pressure gradient source: uncorrected Ubar = 1.00002, pressure gradient = 0.811437
smoothSolver:  Solving for omega, Initial residual = 5.08316e-05, Final residual = 9.25657e-06, No Iterations 4
smoothSolver:  Solving for k, Initial residual = 0.00562974, Final residual = 0.000479554, No Iterations 6
ExecutionTime = 0.26416 s  ClockTime = 0 s

Time = 88s

smoothSolver:  Solving for Ux, Initial residual = 0.00377586, Final residual = 0.000359662, No Iterations 5
smoothSolver:  Solving for Uy, Initial residual = 0.00679853, Final residual = 0.000554206, No Iterations 6
Pressure gradient source: uncorrected Ubar = 1.0003, pressure gradient = 0.496215
GAMG:  Solving for p, Initial residual = 0.00249058, Final residual = 0.00023547, No Iterations 7
time step continuity errors : sum local = 1.43401e-06, global = 1.02758e-17, cumulative = -3.33407e-17
Pressure gradient source: uncorrected Ubar = 1.00002, pressure gradient = 0.794746
smoothSolver:  Solving for omega, Initial residual = 5.03941e-05, Final residual = 9.1572e-06, No Iterations 4
smoothSolver:  Solving for k, Initial residual = 0.00560788, Final residual = 0.000479485, No Iterations 6
ExecutionTime = 0.266864 s  ClockTime = 0 s

Time = 89s

smoothSolver:  Solving for Ux, Initial residual = 0.00375561, Final residual = 0.000358798, No Iterations 5
smoothSolver:  Solving for Uy, Initial residual = 0.00682998, Final residual = 0.000565522, No Iterations 6
Pressure gradient source: uncorrected Ubar = 1.0003, pressure gradient = 0.481567
GAMG:  Solving for p, Initial residual = 0.00330655, Final residual = 0.000199573, No Iterations 4
time step continuity errors : sum local = 1.15318e-06, global = -3.25197e-18, cumulative = -3.65927e-17
[...]
smoothSolver:  Solving for omega, Initial residual = 7.98926e-06, Final residual = 7.98926e-06, No Iterations 0
smoothSolver:  Solving for k, Initial residual = 7.81734e-06, Final residual = 7.81734e-06, No Iterations 0
ExecutionTime = 9.29242 s  ClockTime = 9 s

Time = 3486s

smoothSolver:  Solving for Ux, Initial residual = 3.27517e-06, Final residual = 3.27517e-06, No Iterations 0
smoothSolver:  Solving for Uy, Initial residual = 0.000149017, Final residual = 9.86772e-06, No Iterations 5
Pressure gradient source: uncorrected Ubar = 1, pressure gradient = 0.00567851
GAMG:  Solving for p, Initial residual = 1.29084e-05, Final residual = 9.4626e-07, No Iterations 9
time step continuity errors : sum local = 4.86342e-12, global = 4.15887e-19, cumulative = 1.75382e-16
Pressure gradient source: uncorrected Ubar = 1, pressure gradient = 0.00567851
smoothSolver:  Solving for omega, Initial residual = 7.98927e-06, Final residual = 7.98927e-06, No Iterations 0
smoothSolver:  Solving for k, Initial residual = 7.79352e-06, Final residual = 7.79352e-06, No Iterations 0
ExecutionTime = 9.29508 s  ClockTime = 9 s

Time = 3487s

smoothSolver:  Solving for Ux, Initial residual = 3.27221e-06, Final residual = 3.27221e-06, No Iterations 0
smoothSolver:  Solving for Uy, Initial residual = 0.000146666, Final residual = 9.6972e-06, No Iterations 5
Pressure gradient source: uncorrected Ubar = 1, pressure gradient = 0.00567851
GAMG:  Solving for p, Initial residual = 1.27972e-05, Final residual = 8.85917e-07, No Iterations 9
time step continuity errors : sum local = 4.52145e-12, global = 3.5665e-18, cumulative = 1.78948e-16
Pressure gradient source: uncorrected Ubar = 1, pressure gradient = 0.00567851
smoothSolver:  Solving for omega, Initial residual = 7.98928e-06, Final residual = 7.98928e-06, No Iterations 0
smoothSolver:  Solving for k, Initial residual = 7.76972e-06, Final residual = 7.76972e-06, No Iterations 0
ExecutionTime = 9.29768 s  ClockTime = 9 s

Time = 3488s

smoothSolver:  Solving for Ux, Initial residual = 3.26925e-06, Final residual = 3.26925e-06, No Iterations 0
smoothSolver:  Solving for Uy, Initial residual = 0.000144319, Final residual = 9.53375e-06, No Iterations 5
Pressure gradient source: uncorrected Ubar = 1, pressure gradient = 0.00567851
GAMG:  Solving for p, Initial residual = 1.2688e-05, Final residual = 8.35472e-07, No Iterations 9
time step continuity errors : sum local = 4.22224e-12, global = 9.3363e-19, cumulative = 1.79882e-16
Pressure gradient source: uncorrected Ubar = 1, pressure gradient = 0.00567851
smoothSolver:  Solving for omega, Initial residual = 7.98929e-06, Final residual = 7.98929e-06, No Iterations 0
smoothSolver:  Solving for k, Initial residual = 7.74594e-06, Final residual = 7.74594e-06, No Iterations 0
ExecutionTime = 9.30035 s  ClockTime = 9 s

Time = 3489s

smoothSolver:  Solving for Ux, Initial residual = 3.26629e-06, Final residual = 3.26629e-06, No Iterations 0
smoothSolver:  Solving for Uy, Initial residual = 0.000141953, Final residual = 9.37194e-06, No Iterations 5
Pressure gradient source: uncorrected Ubar = 1, pressure gradient = 0.00567851
GAMG:  Solving for p, Initial residual = 1.25754e-05, Final residual = 1.25146e-06, No Iterations 7
time step continuity errors : sum local = 6.14577e-12, global = 4.07922e-18, cumulative = 1.83961e-16
Pressure gradient source: uncorrected Ubar = 1, pressure gradient = 0.00567851
smoothSolver:  Solving for omega, Initial residual = 7.9893e-06, Final residual = 7.9893e-06, No Iterations 0
smoothSolver:  Solving for k, Initial residual = 7.72218e-06, Final residual = 7.72218e-06, No Iterations 0
ExecutionTime = 9.30306 s  ClockTime = 9 s

Time = 3490s

smoothSolver:  Solving for Ux, Initial residual = 3.26333e-06, Final residual = 3.26333e-06, No Iterations 0
smoothSolver:  Solving for Uy, Initial residual = 0.000138172, Final residual = 9.13028e-06, No Iterations 5
Pressure gradient source: uncorrected Ubar = 1, pressure gradient = 0.00567851
GAMG:  Solving for p, Initial residual = 1.23856e-05, Final residual = 8.00923e-07, No Iterations 9
time step continuity errors : sum local = 3.95228e-12, global = 2.87084e-18, cumulative = 1.86832e-16
Pressure gradient source: uncorrected Ubar = 1, pressure gradient = 0.00567851
smoothSolver:  Solving for omega, Initial residual = 7.98931e-06, Final residual = 7.98931e-06, No Iterations 0
smoothSolver:  Solving for k, Initial residual = 7.69845e-06, Final residual = 7.69845e-06, No Iterations 0
ExecutionTime = 9.30574 s  ClockTime = 9 s

Time = 3491s

smoothSolver:  Solving for Ux, Initial residual = 3.26037e-06, Final residual = 3.26037e-06, No Iterations 0
smoothSolver:  Solving for Uy, Initial residual = 0.000137462, Final residual = 9.08539e-06, No Iterations 5
Pressure gradient source: uncorrected Ubar = 1, pressure gradient = 0.00567851
GAMG:  Solving for p, Initial residual = 1.23103e-05, Final residual = 1.14917e-06, No Iterations 7
time step continuity errors : sum local = 5.50828e-12, global = 1.24919e-18, cumulative = 1.88081e-16
Pressure gradient source: uncorrected Ubar = 1, pressure gradient = 0.00567851
smoothSolver:  Solving for omega, Initial residual = 7.98931e-06, Final residual = 7.98931e-06, No Iterations 0
smoothSolver:  Solving for k, Initial residual = 7.67473e-06, Final residual = 7.67473e-06, No Iterations 0
ExecutionTime = 9.30826 s  ClockTime = 9 s

Time = 3492s

smoothSolver:  Solving for Ux, Initial residual = 3.25742e-06, Final residual = 3.25742e-06, No Iterations 0
smoothSolver:  Solving for Uy, Initial residual = 0.000133794, Final residual = 8.85086e-06, No Iterations 5
Pressure gradient source: uncorrected Ubar = 1, pressure gradient = 0.00567851
GAMG:  Solving for p, Initial residual = 1.21339e-05, Final residual = 1.19386e-06, No Iterations 7
time step continuity errors : sum local = 5.63841e-12, global = 4.05387e-18, cumulative = 1.92135e-16
Pressure gradient source: uncorrected Ubar = 1, pressure gradient = 0.00567851
smoothSolver:  Solving for omega, Initial residual = 7.98932e-06, Final residual = 7.98932e-06, No Iterations 0
smoothSolver:  Solving for k, Initial residual = 7.65103e-06, Final residual = 7.65103e-06, No Iterations 0
ExecutionTime = 9.3108 s  ClockTime = 9 s

Time = 3493s

smoothSolver:  Solving for Ux, Initial residual = 3.25446e-06, Final residual = 3.25446e-06, No Iterations 0
smoothSolver:  Solving for Uy, Initial residual = 0.00013132, Final residual = 8.69744e-06, No Iterations 5
Pressure gradient source: uncorrected Ubar = 1, pressure gradient = 0.00567851
GAMG:  Solving for p, Initial residual = 1.19788e-05, Final residual = 1.16694e-06, No Iterations 7
time step continuity errors : sum local = 5.40989e-12, global = -1.6919e-18, cumulative = 1.90443e-16
Pressure gradient source: uncorrected Ubar = 1, pressure gradient = 0.00567851
smoothSolver:  Solving for omega, Initial residual = 7.98933e-06, Final residual = 7.98933e-06, No Iterations 0
smoothSolver:  Solving for k, Initial residual = 7.62735e-06, Final residual = 7.62735e-06, No Iterations 0
ExecutionTime = 9.31331 s  ClockTime = 9 s

Time = 3494s

smoothSolver:  Solving for Ux, Initial residual = 3.2515e-06, Final residual = 3.2515e-06, No Iterations 0
smoothSolver:  Solving for Uy, Initial residual = 0.000129297, Final residual = 8.57593e-06, No Iterations 5
Pressure gradient source: uncorrected Ubar = 1, pressure gradient = 0.00567851
GAMG:  Solving for p, Initial residual = 1.18454e-05, Final residual = 1.17875e-06, No Iterations 7
time step continuity errors : sum local = 5.38677e-12, global = 5.60432e-18, cumulative = 1.96048e-16
Pressure gradient source: uncorrected Ubar = 1, pressure gradient = 0.00567851
smoothSolver:  Solving for omega, Initial residual = 7.98934e-06, Final residual = 7.98934e-06, No Iterations 0
smoothSolver:  Solving for k, Initial residual = 7.6037e-06, Final residual = 7.6037e-06, No Iterations 0
ExecutionTime = 9.31584 s  ClockTime = 9 s

Time = 3495s

smoothSolver:  Solving for Ux, Initial residual = 3.24855e-06, Final residual = 3.24855e-06, No Iterations 0
smoothSolver:  Solving for Uy, Initial residual = 0.000127168, Final residual = 8.44961e-06, No Iterations 5
Pressure gradient source: uncorrected Ubar = 1, pressure gradient = 0.00567851
GAMG:  Solving for p, Initial residual = 1.17098e-05, Final residual = 8.26543e-07, No Iterations 8
time step continuity errors : sum local = 3.8508e-12, global = 2.80132e-18, cumulative = 1.98849e-16
Pressure gradient source: uncorrected Ubar = 1, pressure gradient = 0.00567851
smoothSolver:  Solving for omega, Initial residual = 7.98935e-06, Final residual = 7.98935e-06, No Iterations 0
smoothSolver:  Solving for k, Initial residual = 7.58006e-06, Final residual = 7.58006e-06, No Iterations 0
ExecutionTime = 9.31844 s  ClockTime = 9 s

Time = 3496s

smoothSolver:  Solving for Ux, Initial residual = 3.24559e-06, Final residual = 3.24559e-06, No Iterations 0
smoothSolver:  Solving for Uy, Initial residual = 0.000125726, Final residual = 8.38264e-06, No Iterations 5
Pressure gradient source: uncorrected Ubar = 1, pressure gradient = 0.00567851
GAMG:  Solving for p, Initial residual = 1.17856e-05, Final residual = 7.5661e-07, No Iterations 8
time step continuity errors : sum local = 3.60446e-12, global = -1.52022e-18, cumulative = 1.97329e-16
Pressure gradient source: uncorrected Ubar = 1, pressure gradient = 0.00567851
smoothSolver:  Solving for omega, Initial residual = 7.98936e-06, Final residual = 7.98936e-06, No Iterations 0
smoothSolver:  Solving for k, Initial residual = 7.55645e-06, Final residual = 7.55645e-06, No Iterations 0
ExecutionTime = 9.32102 s  ClockTime = 9 s

Time = 3497s

smoothSolver:  Solving for Ux, Initial residual = 3.24263e-06, Final residual = 3.24263e-06, No Iterations 0
smoothSolver:  Solving for Uy, Initial residual = 0.00012336, Final residual = 8.24666e-06, No Iterations 5
Pressure gradient source: uncorrected Ubar = 1, pressure gradient = 0.00567851
GAMG:  Solving for p, Initial residual = 1.17409e-05, Final residual = 7.37433e-07, No Iterations 8
time step continuity errors : sum local = 3.59393e-12, global = -1.83864e-19, cumulative = 1.97145e-16
Pressure gradient source: uncorrected Ubar = 1, pressure gradient = 0.00567851
smoothSolver:  Solving for omega, Initial residual = 7.98936e-06, Final residual = 7.98936e-06, No Iterations 0
smoothSolver:  Solving for k, Initial residual = 7.53285e-06, Final residual = 7.53285e-06, No Iterations 0
ExecutionTime = 9.32359 s  ClockTime = 9 s

Time = 3498s

smoothSolver:  Solving for Ux, Initial residual = 3.23968e-06, Final residual = 3.23968e-06, No Iterations 0
smoothSolver:  Solving for Uy, Initial residual = 0.000120664, Final residual = 8.09499e-06, No Iterations 5
Pressure gradient source: uncorrected Ubar = 1, pressure gradient = 0.00567851
GAMG:  Solving for p, Initial residual = 1.16499e-05, Final residual = 7.63809e-07, No Iterations 8
time step continuity errors : sum local = 3.79641e-12, global = -9.19885e-19, cumulative = 1.96225e-16
Pressure gradient source: uncorrected Ubar = 1, pressure gradient = 0.00567851
smoothSolver:  Solving for omega, Initial residual = 7.98937e-06, Final residual = 7.98937e-06, No Iterations 0
smoothSolver:  Solving for k, Initial residual = 7.50928e-06, Final residual = 7.50928e-06, No Iterations 0
ExecutionTime = 9.32617 s  ClockTime = 9 s

Time = 3499s

smoothSolver:  Solving for Ux, Initial residual = 3.23672e-06, Final residual = 3.23672e-06, No Iterations 0
smoothSolver:  Solving for Uy, Initial residual = 0.000118025, Final residual = 7.95222e-06, No Iterations 5
Pressure gradient source: uncorrected Ubar = 1, pressure gradient = 0.00567851
GAMG:  Solving for p, Initial residual = 1.15365e-05, Final residual = 1.05529e-06, No Iterations 6
time step continuity errors : sum local = 5.26322e-12, global = 3.88488e-18, cumulative = 2.0011e-16
Pressure gradient source: uncorrected Ubar = 1, pressure gradient = 0.00567851
smoothSolver:  Solving for omega, Initial residual = 7.98938e-06, Final residual = 7.98938e-06, No Iterations 0
smoothSolver:  Solving for k, Initial residual = 7.48572e-06, Final residual = 7.48572e-06, No Iterations 0
ExecutionTime = 9.32867 s  ClockTime = 9 s

Time = 3500s

smoothSolver:  Solving for Ux, Initial residual = 3.23377e-06, Final residual = 3.23377e-06, No Iterations 0
smoothSolver:  Solving for Uy, Initial residual = 0.00011447, Final residual = 7.74408e-06, No Iterations 5
Pressure gradient source: uncorrected Ubar = 1, pressure gradient = 0.00567851
GAMG:  Solving for p, Initial residual = 1.14884e-05, Final residual = 9.10579e-07, No Iterations 8
time step continuity errors : sum local = 4.62585e-12, global = -3.69299e-18, cumulative = 1.96417e-16
Pressure gradient source: uncorrected Ubar = 1, pressure gradient = 0.00567851
smoothSolver:  Solving for omega, Initial residual = 7.98939e-06, Final residual = 7.98939e-06, No Iterations 0
smoothSolver:  Solving for k, Initial residual = 7.46219e-06, Final residual = 7.46219e-06, No Iterations 0
ExecutionTime = 9.33124 s  ClockTime = 9 s

Time = 3501s

smoothSolver:  Solving for Ux, Initial residual = 3.23082e-06, Final residual = 3.23082e-06, No Iterations 0
smoothSolver:  Solving for Uy, Initial residual = 0.000113166, Final residual = 7.72028e-06, No Iterations 5
Pressure gradient source: uncorrected Ubar = 1, pressure gradient = 0.00567851
GAMG:  Solving for p, Initial residual = 1.13003e-05, Final residual = 9.60585e-07, No Iterations 8
time step continuity errors : sum local = 4.88527e-12, global = -1.98447e-18, cumulative = 1.94432e-16
Pressure gradient source: uncorrected Ubar = 1, pressure gradient = 0.00567851
smoothSolver:  Solving for omega, Initial residual = 7.9894e-06, Final residual = 7.9894e-06, No Iterations 0
smoothSolver:  Solving for k, Initial residual = 7.43867e-06, Final residual = 7.43867e-06, No Iterations 0
ExecutionTime = 9.33386 s  ClockTime = 9 s

Time = 3502s

smoothSolver:  Solving for Ux, Initial residual = 3.22786e-06, Final residual = 3.22786e-06, No Iterations 0
smoothSolver:  Solving for Uy, Initial residual = 0.000111201, Final residual = 7.63816e-06, No Iterations 5
Pressure gradient source: uncorrected Ubar = 1, pressure gradient = 0.00567851
GAMG:  Solving for p, Initial residual = 1.11327e-05, Final residual = 1.01798e-06, No Iterations 8
time step continuity errors : sum local = 5.18489e-12, global = -1.95591e-18, cumulative = 1.92476e-16
Pressure gradient source: uncorrected Ubar = 1, pressure gradient = 0.0056785
smoothSolver:  Solving for omega, Initial residual = 7.98941e-06, Final residual = 7.98941e-06, No Iterations 0
smoothSolver:  Solving for k, Initial residual = 7.41518e-06, Final residual = 7.41518e-06, No Iterations 0
ExecutionTime = 9.33643 s  ClockTime = 9 s

Time = 3503s

smoothSolver:  Solving for Ux, Initial residual = 3.22491e-06, Final residual = 3.22491e-06, No Iterations 0
smoothSolver:  Solving for Uy, Initial residual = 0.000108787, Final residual = 7.52806e-06, No Iterations 5
Pressure gradient source: uncorrected Ubar = 1, pressure gradient = 0.0056785
GAMG:  Solving for p, Initial residual = 1.09761e-05, Final residual = 1.08016e-06, No Iterations 8
time step continuity errors : sum local = 5.5219e-12, global = 6.38287e-18, cumulative = 1.98859e-16
Pressure gradient source: uncorrected Ubar = 1, pressure gradient = 0.0056785
smoothSolver:  Solving for omega, Initial residual = 7.98941e-06, Final residual = 7.98941e-06, No Iterations 0
smoothSolver:  Solving for k, Initial residual = 7.39171e-06, Final residual = 7.39171e-06, No Iterations 0
ExecutionTime = 9.33905 s  ClockTime = 9 s

Time = 3504s

smoothSolver:  Solving for Ux, Initial residual = 3.22196e-06, Final residual = 3.22196e-06, No Iterations 0
smoothSolver:  Solving for Uy, Initial residual = 0.000106296, Final residual = 7.41014e-06, No Iterations 5
Pressure gradient source: uncorrected Ubar = 1, pressure gradient = 0.0056785
GAMG:  Solving for p, Initial residual = 1.08311e-05, Final residual = 8.89423e-07, No Iterations 10
time step continuity errors : sum local = 4.62982e-12, global = 4.6458e-18, cumulative = 2.03505e-16
Pressure gradient source: uncorrected Ubar = 1, pressure gradient = 0.0056785
smoothSolver:  Solving for omega, Initial residual = 7.98942e-06, Final residual = 7.98942e-06, No Iterations 0
smoothSolver:  Solving for k, Initial residual = 7.36825e-06, Final residual = 7.36825e-06, No Iterations 0
ExecutionTime = 9.34171 s  ClockTime = 9 s

Time = 3505s

smoothSolver:  Solving for Ux, Initial residual = 3.21901e-06, Final residual = 3.21901e-06, No Iterations 0
smoothSolver:  Solving for Uy, Initial residual = 0.00010573, Final residual = 7.42853e-06, No Iterations 5
Pressure gradient source: uncorrected Ubar = 1, pressure gradient = 0.0056785
GAMG:  Solving for p, Initial residual = 1.06087e-05, Final residual = 1.05981e-06, No Iterations 9
time step continuity errors : sum local = 5.43683e-12, global = -1.30963e-18, cumulative = 2.02196e-16
Pressure gradient source: uncorrected Ubar = 1, pressure gradient = 0.0056785
smoothSolver:  Solving for omega, Initial residual = 7.98943e-06, Final residual = 7.98943e-06, No Iterations 0
smoothSolver:  Solving for k, Initial residual = 7.34482e-06, Final residual = 7.34482e-06, No Iterations 0
ExecutionTime = 9.34431 s  ClockTime = 9 s

Time = 3506s

smoothSolver:  Solving for Ux, Initial residual = 3.21606e-06, Final residual = 3.21606e-06, No Iterations 0
smoothSolver:  Solving for Uy, Initial residual = 0.000102464, Final residual = 7.25274e-06, No Iterations 5
Pressure gradient source: uncorrected Ubar = 1, pressure gradient = 0.0056785
GAMG:  Solving for p, Initial residual = 1.00845e-05, Final residual = 9.2776e-07, No Iterations 10
time step continuity errors : sum local = 4.82456e-12, global = 6.69468e-19, cumulative = 2.02865e-16
Pressure gradient source: uncorrected Ubar = 1, pressure gradient = 0.0056785
smoothSolver:  Solving for omega, Initial residual = 7.98944e-06, Final residual = 7.98944e-06, No Iterations 0
smoothSolver:  Solving for k, Initial residual = 7.32141e-06, Final residual = 7.32141e-06, No Iterations 0
ExecutionTime = 9.34698 s  ClockTime = 9 s

Time = 3507s

smoothSolver:  Solving for Ux, Initial residual = 3.21311e-06, Final residual = 3.21311e-06, No Iterations 0
smoothSolver:  Solving for Uy, Initial residual = 0.000100572, Final residual = 7.18057e-06, No Iterations 5
Pressure gradient source: uncorrected Ubar = 1, pressure gradient = 0.0056785
GAMG:  Solving for p, Initial residual = 1.00869e-05, Final residual = 9.43531e-07, No Iterations 10
time step continuity errors : sum local = 4.9044e-12, global = -4.94973e-18, cumulative = 1.97915e-16
Pressure gradient source: uncorrected Ubar = 1, pressure gradient = 0.0056785
smoothSolver:  Solving for omega, Initial residual = 7.98945e-06, Final residual = 7.98945e-06, No Iterations 0
smoothSolver:  Solving for k, Initial residual = 7.29802e-06, Final residual = 7.29802e-06, No Iterations 0
ExecutionTime = 9.34967 s  ClockTime = 9 s

Time = 3508s

smoothSolver:  Solving for Ux, Initial residual = 3.21016e-06, Final residual = 3.21016e-06, No Iterations 0
smoothSolver:  Solving for Uy, Initial residual = 9.82234e-05, Final residual = 7.07005e-06, No Iterations 5
Pressure gradient source: uncorrected Ubar = 1, pressure gradient = 0.0056785
GAMG:  Solving for p, Initial residual = 9.99884e-06, Final residual = 9.7133e-07, No Iterations 10
time step continuity errors : sum local = 5.0531e-12, global = -1.44061e-18, cumulative = 1.96475e-16
Pressure gradient source: uncorrected Ubar = 1, pressure gradient = 0.0056785
smoothSolver:  Solving for omega, Initial residual = 7.98945e-06, Final residual = 7.98945e-06, No Iterations 0
smoothSolver:  Solving for k, Initial residual = 7.27465e-06, Final residual = 7.27465e-06, No Iterations 0
ExecutionTime = 9.3524 s  ClockTime = 9 s


SIMPLE solution converged in 3508 iterations

End

