/*---------------------------------------------------------------------------*\
  =========                 |
  \\      /  F ield         | OpenFOAM: The Open Source CFD Toolbox
   \\    /   O peration     | Website:  https://openfoam.org
    \\  /    A nd           | Version:  10
     \\/     M anipulation  |
\*---------------------------------------------------------------------------*/
Build  : 10-e450dce21ea5
Exec   : blockMesh
Date   : Feb 20 2023
Time   : 14:17:54
Host   : "w530-R9YK46P"
PID    : 19051
I/O    : uncollated
Case   : /home/jdmezazeron/gitDanielMezaZ/turbulenceVisualized/Data/SimulationFiles/K38_Re7372
nProcs : 1
sigFpe : Enabling floating point exception trapping (FOAM_SIGFPE).
fileModificationChecking : Monitoring run-time modified files using timeStampMaster (fileModificationSkew 10)
allowSystemOperations : Allowing user-supplied system call operations

// * * * * * * * * * * * * * * * * * * * * * * * * * * * * * * * * * * * * * //
Create time

Deleting polyMesh directory
    "/home/jdmezazeron/gitDanielMezaZ/turbulenceVisualized/Data/SimulationFiles/K38_Re7372/constant/polyMesh"
Reading "blockMeshDict"

Creating block mesh from
    "system/blockMeshDict"
Creating block edges
No non-planar block faces defined
Creating topology blocks
Creating topology patches

Creating block mesh topology

Check topology

	Basic statistics
		Number of internal faces : 0
		Number of boundary faces : 6
		Number of defined boundary faces : 6
		Number of undefined boundary faces : 0
	Checking patch -> block consistency

Creating block offsets
Creating merge list .

Creating polyMesh from blockMesh
Creating patches
Creating cells
Creating points with scale 1
    Block 0 cell size :
        i : 0.5
        j : 0.00461374 .. 0.018455
        k : 2

Detected cyclic patches; ordering boundary faces

Writing polyMesh
----------------
Mesh Information
----------------
  boundingBox: (-1 0 -1) (1 1 1)
  nPoints: 1010
  nCells: 400
  nFaces: 1704
  nInternalFaces: 696
----------------
Patches
----------------
  patch 0 (start: 696 size: 100) name: inlet
  patch 1 (start: 796 size: 100) name: outlet
  patch 2 (start: 896 size: 4) name: fixedWalls-bottom
  patch 3 (start: 900 size: 4) name: fixedWalls-top
  patch 4 (start: 904 size: 800) name: frontAndBack

End

/*---------------------------------------------------------------------------*\
  =========                 |
  \\      /  F ield         | OpenFOAM: The Open Source CFD Toolbox
   \\    /   O peration     | Website:  https://openfoam.org
    \\  /    A nd           | Version:  10
     \\/     M anipulation  |
\*---------------------------------------------------------------------------*/
Build  : 10-e450dce21ea5
Exec   : simpleFoam
Date   : Feb 20 2023
Time   : 14:17:55
Host   : "w530-R9YK46P"
PID    : 19052
I/O    : uncollated
Case   : /home/jdmezazeron/gitDanielMezaZ/turbulenceVisualized/Data/SimulationFiles/K38_Re7372
nProcs : 1
sigFpe : Enabling floating point exception trapping (FOAM_SIGFPE).
fileModificationChecking : Monitoring run-time modified files using timeStampMaster (fileModificationSkew 10)
allowSystemOperations : Allowing user-supplied system call operations

// * * * * * * * * * * * * * * * * * * * * * * * * * * * * * * * * * * * * * //
Create time

Create mesh for time = 0


SIMPLE: Convergence criteria found
        U: tolerance 0.0001
        p: tolerance 0.01
        omega: tolerance 0.0001

Reading field p

Reading field U

Reading/calculating face flux field phi

Selecting viscosity model Newtonian
Selecting turbulence model type RAS
Selecting RAS turbulence model kOmegaSST
Selecting patchDistMethod meshWave
RAS
{
    RASModel        kOmegaSST;
    turbulence      on;
    printCoeffs     on;
    alphaK1         0.85;
    alphaK2         1;
    alphaOmega1     0.5;
    alphaOmega2     0.856;
    gamma1          0.555556;
    gamma2          0.44;
    beta1           0.075;
    beta2           0.0828;
    betaStar        0.09;
    a1              0.31;
    b1              1;
    c1              10;
    F3              false;
}

No MRF models present

--> FOAM Warning : Creating fvModels from "system/fvOptions" rather than constant/fvModels
No fvModels present
--> FOAM Warning : Creating fvConstraints from "system/fvOptions"

Selecting finite volume constraint type meanVelocityForce
    Name: momentumSource
    - selecting all cells
    - selected 400 cell(s) with volume 4
    Initial pressure gradient = 0


Starting time loop

turbulenceFields stressComponents: storing fields:
    R

Time = 1s

smoothSolver:  Solving for Ux, Initial residual = 0, Final residual = 0, No Iterations 0
smoothSolver:  Solving for Uy, Initial residual = 0, Final residual = 0, No Iterations 0
Pressure gradient source: uncorrected Ubar = 0, pressure gradient = 1065.15
GAMG:  Solving for p, Initial residual = 0.999996, Final residual = 0.0740649, No Iterations 3
time step continuity errors : sum local = 8.80907e-17, global = -6.5379e-18, cumulative = -6.5379e-18
Pressure gradient source: uncorrected Ubar = 0.884653, pressure gradient = 122.861
smoothSolver:  Solving for omega, Initial residual = 0.259933, Final residual = 0.0157051, No Iterations 3
smoothSolver:  Solving for k, Initial residual = 1, Final residual = 0.0634338, No Iterations 5
ExecutionTime = 0.014005 s  ClockTime = 0 s

Time = 2s

smoothSolver:  Solving for Ux, Initial residual = 0.993821, Final residual = 0.09745, No Iterations 6
smoothSolver:  Solving for Uy, Initial residual = 1, Final residual = 0.0689169, No Iterations 5
Pressure gradient source: uncorrected Ubar = 69.8501, pressure gradient = -910.699
GAMG:  Solving for p, Initial residual = 1, Final residual = 0.0985777, No Iterations 15
time step continuity errors : sum local = 0.0627358, global = -3.13334e-17, cumulative = -3.78713e-17
Pressure gradient source: uncorrected Ubar = 9.99352, pressure gradient = -12.1475
smoothSolver:  Solving for omega, Initial residual = 0.117302, Final residual = 0.0056692, No Iterations 1
smoothSolver:  Solving for k, Initial residual = 0.618991, Final residual = 0.0246414, No Iterations 2
ExecutionTime = 0.017049 s  ClockTime = 0 s

Time = 3s

smoothSolver:  Solving for Ux, Initial residual = 0.320787, Final residual = 0.0247809, No Iterations 6
smoothSolver:  Solving for Uy, Initial residual = 0.658887, Final residual = 0.0211967, No Iterations 2
Pressure gradient source: uncorrected Ubar = -1.61634, pressure gradient = 93.5016
GAMG:  Solving for p, Initial residual = 0.176297, Final residual = 0.0136481, No Iterations 9
time step continuity errors : sum local = 0.0218017, global = -5.48742e-17, cumulative = -9.27455e-17
Pressure gradient source: uncorrected Ubar = 0.683569, pressure gradient = 0.630155
smoothSolver:  Solving for omega, Initial residual = 0.1404, Final residual = 0.00526899, No Iterations 1
smoothSolver:  Solving for k, Initial residual = 0.502139, Final residual = 0.0221967, No Iterations 2
ExecutionTime = 0.019752 s  ClockTime = 0 s

Time = 4s

smoothSolver:  Solving for Ux, Initial residual = 0.0738013, Final residual = 0.00634383, No Iterations 4
smoothSolver:  Solving for Uy, Initial residual = 0.380702, Final residual = 0.0323243, No Iterations 2
Pressure gradient source: uncorrected Ubar = 0.949661, pressure gradient = 1.83841
GAMG:  Solving for p, Initial residual = 0.0862065, Final residual = 0.00823698, No Iterations 9
time step continuity errors : sum local = 0.031525, global = -1.5748e-17, cumulative = -1.08494e-16
Pressure gradient source: uncorrected Ubar = 0.991472, pressure gradient = 0.834839
smoothSolver:  Solving for omega, Initial residual = 0.033049, Final residual = 0.00144217, No Iterations 2
smoothSolver:  Solving for k, Initial residual = 0.739222, Final residual = 0.0323715, No Iterations 2
ExecutionTime = 0.022434 s  ClockTime = 0 s

Time = 5s

smoothSolver:  Solving for Ux, Initial residual = 0.0742259, Final residual = 0.00493727, No Iterations 5
smoothSolver:  Solving for Uy, Initial residual = 0.383283, Final residual = 0.0292465, No Iterations 2
Pressure gradient source: uncorrected Ubar = 0.950916, pressure gradient = 2.02677
GAMG:  Solving for p, Initial residual = 0.0924312, Final residual = 0.00850667, No Iterations 10
time step continuity errors : sum local = 0.0269653, global = 3.63275e-17, cumulative = -7.2166e-17
Pressure gradient source: uncorrected Ubar = 0.994116, pressure gradient = 0.977734
smoothSolver:  Solving for omega, Initial residual = 0.0903951, Final residual = 0.00284378, No Iterations 2
smoothSolver:  Solving for k, Initial residual = 0.740956, Final residual = 0.0656959, No Iterations 1
ExecutionTime = 0.025144 s  ClockTime = 0 s

Time = 6s

smoothSolver:  Solving for Ux, Initial residual = 0.0784464, Final residual = 0.00477251, No Iterations 5
smoothSolver:  Solving for Uy, Initial residual = 0.933722, Final residual = 0.0502569, No Iterations 2
Pressure gradient source: uncorrected Ubar = 0.977765, pressure gradient = 1.53649
GAMG:  Solving for p, Initial residual = 0.103436, Final residual = 0.00584434, No Iterations 9
time step continuity errors : sum local = 0.0184364, global = -1.47451e-17, cumulative = -8.69111e-17
Pressure gradient source: uncorrected Ubar = 0.997406, pressure gradient = 1.04291
smoothSolver:  Solving for omega, Initial residual = 0.174421, Final residual = 0.00304156, No Iterations 2
bounding omega, min: -3.096 max: 4078.43 average: 145.703
smoothSolver:  Solving for k, Initial residual = 0.414235, Final residual = 0.00304266, No Iterations 2
ExecutionTime = 0.027913 s  ClockTime = 0 s

Time = 7s

smoothSolver:  Solving for Ux, Initial residual = 0.0643167, Final residual = 0.00557902, No Iterations 4
smoothSolver:  Solving for Uy, Initial residual = 0.885188, Final residual = 0.0694334, No Iterations 2
Pressure gradient source: uncorrected Ubar = 0.909559, pressure gradient = 3.86517
GAMG:  Solving for p, Initial residual = 0.168788, Final residual = 0.0144979, No Iterations 11
time step continuity errors : sum local = 0.0305729, global = -1.04083e-17, cumulative = -9.73195e-17
Pressure gradient source: uncorrected Ubar = 0.987696, pressure gradient = 1.42687
smoothSolver:  Solving for omega, Initial residual = 0.242665, Final residual = 0.00180059, No Iterations 2
bounding omega, min: -14.6769 max: 4078.43 average: 148.464
smoothSolver:  Solving for k, Initial residual = 0.329462, Final residual = 0.00451436, No Iterations 2
ExecutionTime = 0.030755 s  ClockTime = 0 s

Time = 8s

smoothSolver:  Solving for Ux, Initial residual = 0.0680428, Final residual = 0.00613171, No Iterations 4
smoothSolver:  Solving for Uy, Initial residual = 0.582174, Final residual = 0.0491057, No Iterations 2
Pressure gradient source: uncorrected Ubar = 0.923344, pressure gradient = 4.36427
GAMG:  Solving for p, Initial residual = 0.174501, Final residual = 0.0170291, No Iterations 8
time step continuity errors : sum local = 0.0482813, global = 9.22114e-17, cumulative = -5.10807e-18
Pressure gradient source: uncorrected Ubar = 0.989649, pressure gradient = 1.8235
smoothSolver:  Solving for omega, Initial residual = 0.229144, Final residual = 0.0220237, No Iterations 1
smoothSolver:  Solving for k, Initial residual = 0.251724, Final residual = 0.00529373, No Iterations 2
ExecutionTime = 0.033358 s  ClockTime = 0 s

Time = 9s

smoothSolver:  Solving for Ux, Initial residual = 0.0765229, Final residual = 0.00590407, No Iterations 4
smoothSolver:  Solving for Uy, Initial residual = 0.542127, Final residual = 0.0492666, No Iterations 2
Pressure gradient source: uncorrected Ubar = 0.920616, pressure gradient = 5.31595
GAMG:  Solving for p, Initial residual = 0.1644, Final residual = 0.0141021, No Iterations 9
time step continuity errors : sum local = 0.0564862, global = -8.23655e-18, cumulative = -1.33446e-17
Pressure gradient source: uncorrected Ubar = 0.989018, pressure gradient = 2.30665
smoothSolver:  Solving for omega, Initial residual = 0.169182, Final residual = 0.00229996, No Iterations 2
smoothSolver:  Solving for k, Initial residual = 0.233271, Final residual = 0.0121913, No Iterations 2
ExecutionTime = 0.036048 s  ClockTime = 0 s

Time = 10s

smoothSolver:  Solving for Ux, Initial residual = 0.0635015, Final residual = 0.0045922, No Iterations 4
smoothSolver:  Solving for Uy, Initial residual = 0.544284, Final residual = 0.0504086, No Iterations 2
Pressure gradient source: uncorrected Ubar = 0.815243, pressure gradient = 11.4179
GAMG:  Solving for p, Initial residual = 0.258984, Final residual = 0.0236787, No Iterations 10
time step continuity errors : sum local = 0.0650324, global = 1.59039e-16, cumulative = 1.45694e-16
Pressure gradient source: uncorrected Ubar = 0.974056, pressure gradient = 3.58607
smoothSolver:  Solving for omega, Initial residual = 0.153197, Final residual = 0.0030783, No Iterations 2
smoothSolver:  Solving for k, Initial residual = 0.200827, Final residual = 0.0178884, No Iterations 2
ExecutionTime = 0.038777 s  ClockTime = 0 s

Time = 11s

smoothSolver:  Solving for Ux, Initial residual = 0.0527846, Final residual = 0.00373935, No Iterations 4
smoothSolver:  Solving for Uy, Initial residual = 0.455613, Final residual = 0.0186343, No Iterations 3
Pressure gradient source: uncorrected Ubar = 0.946615, pressure gradient = 6.72726
GAMG:  Solving for p, Initial residual = 0.387474, Final residual = 0.0240166, No Iterations 8
time step continuity errors : sum local = 0.0758615, global = -1.11131e-17, cumulative = 1.34581e-16
Pressure gradient source: uncorrected Ubar = 0.98843, pressure gradient = 4.26686
smoothSolver:  Solving for omega, Initial residual = 0.162976, Final residual = 0.0048046, No Iterations 2
smoothSolver:  Solving for k, Initial residual = 0.149371, Final residual = 0.00704034, No Iterations 3
ExecutionTime = 0.0414 s  ClockTime = 0 s

Time = 12s

smoothSolver:  Solving for Ux, Initial residual = 0.0379168, Final residual = 0.00254453, No Iterations 4
smoothSolver:  Solving for Uy, Initial residual = 0.366831, Final residual = 0.0145947, No Iterations 3
Pressure gradient source: uncorrected Ubar = 0.903837, pressure gradient = 11.049
GAMG:  Solving for p, Initial residual = 0.253749, Final residual = 0.0240617, No Iterations 10
time step continuity errors : sum local = 0.123539, global = 5.52943e-17, cumulative = 1.89876e-16
Pressure gradient source: uncorrected Ubar = 0.988245, pressure gradient = 5.0959
smoothSolver:  Solving for omega, Initial residual = 0.163525, Final residual = 0.00544479, No Iterations 2
smoothSolver:  Solving for k, Initial residual = 0.134226, Final residual = 0.00853822, No Iterations 3
ExecutionTime = 0.044326 s  ClockTime = 0 s

Time = 13s

smoothSolver:  Solving for Ux, Initial residual = 0.0291409, Final residual = 0.00192372, No Iterations 4
smoothSolver:  Solving for Uy, Initial residual = 0.379733, Final residual = 0.0186182, No Iterations 3
Pressure gradient source: uncorrected Ubar = 0.894504, pressure gradient = 13.7105
GAMG:  Solving for p, Initial residual = 0.18984, Final residual = 0.0117634, No Iterations 8
time step continuity errors : sum local = 0.116978, global = 4.27176e-17, cumulative = 2.32593e-16
Pressure gradient source: uncorrected Ubar = 0.992814, pressure gradient = 5.68266
smoothSolver:  Solving for omega, Initial residual = 0.153893, Final residual = 0.00581592, No Iterations 2
smoothSolver:  Solving for k, Initial residual = 0.102087, Final residual = 0.00696756, No Iterations 3
ExecutionTime = 0.047056 s  ClockTime = 0 s

Time = 14s

smoothSolver:  Solving for Ux, Initial residual = 0.0244132, Final residual = 0.00162083, No Iterations 4
smoothSolver:  Solving for Uy, Initial residual = 0.364015, Final residual = 0.0186894, No Iterations 3
Pressure gradient source: uncorrected Ubar = 0.892493, pressure gradient = 16.1607
GAMG:  Solving for p, Initial residual = 0.425726, Final residual = 0.0378906, No Iterations 10
time step continuity errors : sum local = 0.141529, global = -1.4203e-17, cumulative = 2.1839e-16
Pressure gradient source: uncorrected Ubar = 0.99047, pressure gradient = 6.61151
smoothSolver:  Solving for omega, Initial residual = 0.130338, Final residual = 0.006373, No Iterations 2
smoothSolver:  Solving for k, Initial residual = 0.0937791, Final residual = 0.00703755, No Iterations 3
ExecutionTime = 0.049768 s  ClockTime = 0 s

Time = 15s

smoothSolver:  Solving for Ux, Initial residual = 0.021806, Final residual = 0.00154761, No Iterations 4
smoothSolver:  Solving for Uy, Initial residual = 0.401852, Final residual = 0.024935, No Iterations 3
Pressure gradient source: uncorrected Ubar = 0.969766, pressure gradient = 10.0165
GAMG:  Solving for p, Initial residual = 0.261023, Final residual = 0.0236527, No Iterations 10
time step continuity errors : sum local = 0.138878, global = 8.08815e-17, cumulative = 2.99272e-16
Pressure gradient source: uncorrected Ubar = 1.00468, pressure gradient = 6.0846
smoothSolver:  Solving for omega, Initial residual = 0.120165, Final residual = 0.00721684, No Iterations 2
smoothSolver:  Solving for k, Initial residual = 0.0804026, Final residual = 0.00640481, No Iterations 3
ExecutionTime = 0.052529 s  ClockTime = 0 s

Time = 16s

smoothSolver:  Solving for Ux, Initial residual = 0.0184404, Final residual = 0.00142839, No Iterations 4
smoothSolver:  Solving for Uy, Initial residual = 0.453989, Final residual = 0.0288204, No Iterations 3
Pressure gradient source: uncorrected Ubar = 0.909996, pressure gradient = 18.0303
GAMG:  Solving for p, Initial residual = 0.330266, Final residual = 0.027663, No Iterations 8
time step continuity errors : sum local = 0.143542, global = 6.79795e-17, cumulative = 3.67251e-16
Pressure gradient source: uncorrected Ubar = 0.999457, pressure gradient = 6.15661
smoothSolver:  Solving for omega, Initial residual = 0.0942803, Final residual = 0.00795259, No Iterations 2
smoothSolver:  Solving for k, Initial residual = 0.0736389, Final residual = 0.00639535, No Iterations 3
ExecutionTime = 0.055186 s  ClockTime = 0 s

Time = 17s

smoothSolver:  Solving for Ux, Initial residual = 0.0170353, Final residual = 0.00137602, No Iterations 4
smoothSolver:  Solving for Uy, Initial residual = 0.391244, Final residual = 0.0204511, No Iterations 3
Pressure gradient source: uncorrected Ubar = 0.918041, pressure gradient = 18.1103
GAMG:  Solving for p, Initial residual = 0.185149, Final residual = 0.0161651, No Iterations 11
time step continuity errors : sum local = 0.120055, global = 6.61363e-18, cumulative = 3.73865e-16
Pressure gradient source: uncorrected Ubar = 0.989693, pressure gradient = 7.65984
smoothSolver:  Solving for omega, Initial residual = 0.0837243, Final residual = 0.00686941, No Iterations 2
smoothSolver:  Solving for k, Initial residual = 0.0691856, Final residual = 0.00401681, No Iterations 4
ExecutionTime = 0.057975 s  ClockTime = 0 s

Time = 18s

smoothSolver:  Solving for Ux, Initial residual = 0.0151075, Final residual = 0.00147327, No Iterations 4
smoothSolver:  Solving for Uy, Initial residual = 0.325796, Final residual = 0.0255291, No Iterations 3
Pressure gradient source: uncorrected Ubar = 1.00524, pressure gradient = 6.82671
GAMG:  Solving for p, Initial residual = 0.0836442, Final residual = 0.00757988, No Iterations 10
time step continuity errors : sum local = 0.137456, global = 1.44077e-16, cumulative = 5.17942e-16
Pressure gradient source: uncorrected Ubar = 0.999266, pressure gradient = 7.77662
smoothSolver:  Solving for omega, Initial residual = 0.0678811, Final residual = 0.00353693, No Iterations 3
smoothSolver:  Solving for k, Initial residual = 0.0643205, Final residual = 0.00441331, No Iterations 4
ExecutionTime = 0.060711 s  ClockTime = 0 s

Time = 19s

smoothSolver:  Solving for Ux, Initial residual = 0.0141787, Final residual = 0.000939582, No Iterations 5
smoothSolver:  Solving for Uy, Initial residual = 0.353163, Final residual = 0.0237174, No Iterations 3
Pressure gradient source: uncorrected Ubar = 1.01432, pressure gradient = 5.19681
GAMG:  Solving for p, Initial residual = 0.085744, Final residual = 0.00654506, No Iterations 9
time step continuity errors : sum local = 0.122103, global = -1.04742e-16, cumulative = 4.13199e-16
Pressure gradient source: uncorrected Ubar = 1.00063, pressure gradient = 7.66395
smoothSolver:  Solving for omega, Initial residual = 0.0539506, Final residual = 0.00377125, No Iterations 3
smoothSolver:  Solving for k, Initial residual = 0.0611791, Final residual = 0.00520111, No Iterations 4
ExecutionTime = 0.063454 s  ClockTime = 0 s

Time = 20s

smoothSolver:  Solving for Ux, Initial residual = 0.0129875, Final residual = 0.000934214, No Iterations 5
smoothSolver:  Solving for Uy, Initial residual = 0.24712, Final residual = 0.019404, No Iterations 3
Pressure gradient source: uncorrected Ubar = 1.00739, pressure gradient = 6.17648
GAMG:  Solving for p, Initial residual = 0.0903341, Final residual = 0.00732352, No Iterations 8
time step continuity errors : sum local = 0.11635, global = -1.0405e-17, cumulative = 4.02794e-16
Pressure gradient source: uncorrected Ubar = 0.997362, pressure gradient = 8.19499
smoothSolver:  Solving for omega, Initial residual = 0.0417723, Final residual = 0.00233658, No Iterations 4
smoothSolver:  Solving for k, Initial residual = 0.0587918, Final residual = 0.00353039, No Iterations 5
ExecutionTime = 0.066176 s  ClockTime = 0 s

Time = 21s

smoothSolver:  Solving for Ux, Initial residual = 0.0121675, Final residual = 0.000947386, No Iterations 5
smoothSolver:  Solving for Uy, Initial residual = 0.240287, Final residual = 0.017312, No Iterations 3
Pressure gradient source: uncorrected Ubar = 1.02437, pressure gradient = 2.91886
GAMG:  Solving for p, Initial residual = 0.0890373, Final residual = 0.0075857, No Iterations 9
time step continuity errors : sum local = 0.0880354, global = -1.61478e-17, cumulative = 3.86646e-16
Pressure gradient source: uncorrected Ubar = 1.00284, pressure gradient = 7.58128
smoothSolver:  Solving for omega, Initial residual = 0.0368861, Final residual = 0.00255349, No Iterations 4
smoothSolver:  Solving for k, Initial residual = 0.0538087, Final residual = 0.00360425, No Iterations 5
ExecutionTime = 0.068892 s  ClockTime = 0 s

Time = 22s

smoothSolver:  Solving for Ux, Initial residual = 0.0113692, Final residual = 0.000927613, No Iterations 5
smoothSolver:  Solving for Uy, Initial residual = 0.260709, Final residual = 0.0199222, No Iterations 3
Pressure gradient source: uncorrected Ubar = 1.00834, pressure gradient = 5.66952
GAMG:  Solving for p, Initial residual = 0.0861269, Final residual = 0.00856935, No Iterations 10
time step continuity errors : sum local = 0.0678598, global = -4.38085e-17, cumulative = 3.42838e-16
Pressure gradient source: uncorrected Ubar = 1.00076, pressure gradient = 7.40798
smoothSolver:  Solving for omega, Initial residual = 0.03728, Final residual = 0.0027636, No Iterations 4
smoothSolver:  Solving for k, Initial residual = 0.0498128, Final residual = 0.00377155, No Iterations 5
ExecutionTime = 0.0717 s  ClockTime = 0 s

Time = 23s

smoothSolver:  Solving for Ux, Initial residual = 0.0108106, Final residual = 0.000905343, No Iterations 5
smoothSolver:  Solving for Uy, Initial residual = 0.221804, Final residual = 0.0216164, No Iterations 3
Pressure gradient source: uncorrected Ubar = 1.0041, pressure gradient = 6.39498
GAMG:  Solving for p, Initial residual = 0.153432, Final residual = 0.0151684, No Iterations 10
time step continuity errors : sum local = 0.0649244, global = 6.68817e-17, cumulative = 4.0972e-16
Pressure gradient source: uncorrected Ubar = 1.0001, pressure gradient = 7.38248
smoothSolver:  Solving for omega, Initial residual = 0.0370541, Final residual = 0.00293937, No Iterations 4
smoothSolver:  Solving for k, Initial residual = 0.0458971, Final residual = 0.00381659, No Iterations 5
ExecutionTime = 0.074527 s  ClockTime = 0 s

Time = 24s

smoothSolver:  Solving for Ux, Initial residual = 0.0103964, Final residual = 0.000882631, No Iterations 5
smoothSolver:  Solving for Uy, Initial residual = 0.198466, Final residual = 0.0106563, No Iterations 4
Pressure gradient source: uncorrected Ubar = 0.999638, pressure gradient = 7.47865
GAMG:  Solving for p, Initial residual = 0.051049, Final residual = 0.0050987, No Iterations 9
time step continuity errors : sum local = 0.0637434, global = -8.82405e-17, cumulative = 3.21479e-16
Pressure gradient source: uncorrected Ubar = 0.99998, pressure gradient = 7.38784
smoothSolver:  Solving for omega, Initial residual = 0.0348652, Final residual = 0.00312907, No Iterations 4
smoothSolver:  Solving for k, Initial residual = 0.0417815, Final residual = 0.00363385, No Iterations 5
ExecutionTime = 0.077299 s  ClockTime = 0 s

Time = 25s

smoothSolver:  Solving for Ux, Initial residual = 0.0100554, Final residual = 0.000859291, No Iterations 5
smoothSolver:  Solving for Uy, Initial residual = 0.193059, Final residual = 0.0102086, No Iterations 4
Pressure gradient source: uncorrected Ubar = 0.99985, pressure gradient = 7.43019
GAMG:  Solving for p, Initial residual = 0.0261458, Final residual = 0.00236708, No Iterations 7
time step continuity errors : sum local = 0.0551391, global = 2.50552e-17, cumulative = 3.46534e-16
Pressure gradient source: uncorrected Ubar = 1.00012, pressure gradient = 7.35353
smoothSolver:  Solving for omega, Initial residual = 0.0327339, Final residual = 0.00314836, No Iterations 4
smoothSolver:  Solving for k, Initial residual = 0.038064, Final residual = 0.00345064, No Iterations 5
ExecutionTime = 0.079975 s  ClockTime = 0 s

Time = 26s

smoothSolver:  Solving for Ux, Initial residual = 0.00971424, Final residual = 0.000834958, No Iterations 5
smoothSolver:  Solving for Uy, Initial residual = 0.17645, Final residual = 0.0101469, No Iterations 4
Pressure gradient source: uncorrected Ubar = 1.00249, pressure gradient = 6.60272
GAMG:  Solving for p, Initial residual = 0.0184539, Final residual = 0.00175377, No Iterations 9
time step continuity errors : sum local = 0.0517853, global = 2.64545e-17, cumulative = 3.72989e-16
Pressure gradient source: uncorrected Ubar = 1.00061, pressure gradient = 7.16856
smoothSolver:  Solving for omega, Initial residual = 0.0327944, Final residual = 0.00317744, No Iterations 4
smoothSolver:  Solving for k, Initial residual = 0.0350977, Final residual = 0.00335873, No Iterations 5
ExecutionTime = 0.082729 s  ClockTime = 0 s

Time = 27s

smoothSolver:  Solving for Ux, Initial residual = 0.00937002, Final residual = 0.000807481, No Iterations 5
smoothSolver:  Solving for Uy, Initial residual = 0.153837, Final residual = 0.0103613, No Iterations 4
Pressure gradient source: uncorrected Ubar = 1.00256, pressure gradient = 6.34599
GAMG:  Solving for p, Initial residual = 0.0141497, Final residual = 0.00124301, No Iterations 9
time step continuity errors : sum local = 0.0429948, global = -1.40777e-18, cumulative = 3.71581e-16
Pressure gradient source: uncorrected Ubar = 1.00049, pressure gradient = 7.00954
smoothSolver:  Solving for omega, Initial residual = 0.0321774, Final residual = 0.00202839, No Iterations 5
smoothSolver:  Solving for k, Initial residual = 0.0325816, Final residual = 0.00322835, No Iterations 5
ExecutionTime = 0.085472 s  ClockTime = 0 s

Time = 28s

smoothSolver:  Solving for Ux, Initial residual = 0.00906945, Final residual = 0.000782793, No Iterations 5
smoothSolver:  Solving for Uy, Initial residual = 0.132321, Final residual = 0.0102013, No Iterations 4
Pressure gradient source: uncorrected Ubar = 1.00482, pressure gradient = 5.35426
GAMG:  Solving for p, Initial residual = 0.00977082, Final residual = 0.000838558, No Iterations 9
time step continuity errors : sum local = 0.0330577, global = 4.2067e-17, cumulative = 4.13648e-16
Pressure gradient source: uncorrected Ubar = 1.00065, pressure gradient = 6.78547
smoothSolver:  Solving for omega, Initial residual = 0.0308346, Final residual = 0.00209326, No Iterations 5
smoothSolver:  Solving for k, Initial residual = 0.0302604, Final residual = 0.00197633, No Iterations 6
ExecutionTime = 0.088249 s  ClockTime = 0 s

Time = 29s

smoothSolver:  Solving for Ux, Initial residual = 0.00878289, Final residual = 0.000758796, No Iterations 5
smoothSolver:  Solving for Uy, Initial residual = 0.123839, Final residual = 0.00981522, No Iterations 4
Pressure gradient source: uncorrected Ubar = 1.00565, pressure gradient = 4.71407
GAMG:  Solving for p, Initial residual = 0.00667861, Final residual = 0.000614014, No Iterations 9
time step continuity errors : sum local = 0.0257643, global = -2.03288e-18, cumulative = 4.11615e-16
Pressure gradient source: uncorrected Ubar = 1.00072, pressure gradient = 6.52032
smoothSolver:  Solving for omega, Initial residual = 0.0308906, Final residual = 0.0022699, No Iterations 5
smoothSolver:  Solving for k, Initial residual = 0.0283687, Final residual = 0.00190444, No Iterations 6
ExecutionTime = 0.091009 s  ClockTime = 0 s

Time = 30s

smoothSolver:  Solving for Ux, Initial residual = 0.0085109, Final residual = 0.000736004, No Iterations 5
smoothSolver:  Solving for Uy, Initial residual = 0.109549, Final residual = 0.00957425, No Iterations 4
Pressure gradient source: uncorrected Ubar = 1.00433, pressure gradient = 4.8278
GAMG:  Solving for p, Initial residual = 0.00517103, Final residual = 0.000493267, No Iterations 8
time step continuity errors : sum local = 0.0209954, global = -8.6682e-17, cumulative = 3.24933e-16
Pressure gradient source: uncorrected Ubar = 1.00048, pressure gradient = 6.33124
smoothSolver:  Solving for omega, Initial residual = 0.0294281, Final residual = 0.00221548, No Iterations 5
smoothSolver:  Solving for k, Initial residual = 0.0262587, Final residual = 0.00180182, No Iterations 6
ExecutionTime = 0.093713 s  ClockTime = 0 s

Time = 31s

smoothSolver:  Solving for Ux, Initial residual = 0.00825363, Final residual = 0.000715059, No Iterations 5
smoothSolver:  Solving for Uy, Initial residual = 0.0927562, Final residual = 0.00914595, No Iterations 4
Pressure gradient source: uncorrected Ubar = 1.0036, pressure gradient = 4.83125
GAMG:  Solving for p, Initial residual = 0.00451199, Final residual = 0.000371784, No Iterations 8
time step continuity errors : sum local = 0.0148585, global = -1.3569e-16, cumulative = 1.89243e-16
Pressure gradient source: uncorrected Ubar = 1.00034, pressure gradient = 6.18944
smoothSolver:  Solving for omega, Initial residual = 0.0275585, Final residual = 0.00225865, No Iterations 5
smoothSolver:  Solving for k, Initial residual = 0.0246951, Final residual = 0.00175539, No Iterations 6
ExecutionTime = 0.096437 s  ClockTime = 0 s

Time = 32s

smoothSolver:  Solving for Ux, Initial residual = 0.00801521, Final residual = 0.000695382, No Iterations 5
smoothSolver:  Solving for Uy, Initial residual = 0.0777827, Final residual = 0.00503253, No Iterations 5
Pressure gradient source: uncorrected Ubar = 1.0034, pressure gradient = 4.68988
GAMG:  Solving for p, Initial residual = 0.00402042, Final residual = 0.000354478, No Iterations 6
time step continuity errors : sum local = 0.0121746, global = 3.96259e-17, cumulative = 2.28869e-16
Pressure gradient source: uncorrected Ubar = 1.00032, pressure gradient = 6.04919
smoothSolver:  Solving for omega, Initial residual = 0.0264023, Final residual = 0.00217549, No Iterations 5
smoothSolver:  Solving for k, Initial residual = 0.0230111, Final residual = 0.00166693, No Iterations 6
ExecutionTime = 0.099061 s  ClockTime = 0 s

Time = 33s

smoothSolver:  Solving for Ux, Initial residual = 0.00779151, Final residual = 0.000676752, No Iterations 5
smoothSolver:  Solving for Uy, Initial residual = 0.0699656, Final residual = 0.00452705, No Iterations 5
Pressure gradient source: uncorrected Ubar = 1.00204, pressure gradient = 5.09362
GAMG:  Solving for p, Initial residual = 0.00371737, Final residual = 0.000354648, No Iterations 4
time step continuity errors : sum local = 0.00957323, global = -6.53808e-17, cumulative = 1.63488e-16
Pressure gradient source: uncorrected Ubar = 1.00007, pressure gradient = 6.01812
smoothSolver:  Solving for omega, Initial residual = 0.0243769, Final residual = 0.00214242, No Iterations 5
smoothSolver:  Solving for k, Initial residual = 0.0216547, Final residual = 0.0015998, No Iterations 6
ExecutionTime = 0.10179 s  ClockTime = 0 s

Time = 34s

smoothSolver:  Solving for Ux, Initial residual = 0.00757412, Final residual = 0.000652949, No Iterations 5
smoothSolver:  Solving for Uy, Initial residual = 0.0632426, Final residual = 0.00400645, No Iterations 5
Pressure gradient source: uncorrected Ubar = 1.00165, pressure gradient = 5.18742
GAMG:  Solving for p, Initial residual = 0.00334088, Final residual = 9.94176e-05, No Iterations 5
time step continuity errors : sum local = 0.00215274, global = 2.48289e-17, cumulative = 1.88317e-16
Pressure gradient source: uncorrected Ubar = 1.00001, pressure gradient = 6.01171
smoothSolver:  Solving for omega, Initial residual = 0.023268, Final residual = 0.00207746, No Iterations 5
smoothSolver:  Solving for k, Initial residual = 0.0198824, Final residual = 0.00148008, No Iterations 6
ExecutionTime = 0.105313 s  ClockTime = 0 s

Time = 35s

smoothSolver:  Solving for Ux, Initial residual = 0.00729125, Final residual = 0.000625166, No Iterations 5
smoothSolver:  Solving for Uy, Initial residual = 0.0566336, Final residual = 0.00379268, No Iterations 5
Pressure gradient source: uncorrected Ubar = 1.00115, pressure gradient = 5.40153
GAMG:  Solving for p, Initial residual = 0.00305839, Final residual = 0.000184199, No Iterations 4
time step continuity errors : sum local = 0.00383063, global = 5.55128e-17, cumulative = 2.4383e-16
Pressure gradient source: uncorrected Ubar = 0.999987, pressure gradient = 6.01842
smoothSolver:  Solving for omega, Initial residual = 0.0222813, Final residual = 0.00214474, No Iterations 5
smoothSolver:  Solving for k, Initial residual = 0.0180339, Final residual = 0.0013596, No Iterations 6
ExecutionTime = 0.108071 s  ClockTime = 0 s

Time = 36s

smoothSolver:  Solving for Ux, Initial residual = 0.0070022, Final residual = 0.000599003, No Iterations 5
smoothSolver:  Solving for Uy, Initial residual = 0.0478593, Final residual = 0.00343068, No Iterations 5
Pressure gradient source: uncorrected Ubar = 1.00029, pressure gradient = 5.85606
GAMG:  Solving for p, Initial residual = 0.00285449, Final residual = 0.000273549, No Iterations 4
time step continuity errors : sum local = 0.00530313, global = -5.20955e-17, cumulative = 1.91734e-16
Pressure gradient source: uncorrected Ubar = 0.999871, pressure gradient = 6.0904
smoothSolver:  Solving for omega, Initial residual = 0.0204468, Final residual = 0.00201084, No Iterations 5
smoothSolver:  Solving for k, Initial residual = 0.0163968, Final residual = 0.00124702, No Iterations 6
ExecutionTime = 0.110706 s  ClockTime = 0 s

Time = 37s

smoothSolver:  Solving for Ux, Initial residual = 0.00674114, Final residual = 0.000574394, No Iterations 5
smoothSolver:  Solving for Uy, Initial residual = 0.0406605, Final residual = 0.00313054, No Iterations 5
Pressure gradient source: uncorrected Ubar = 0.99988, pressure gradient = 6.16143
GAMG:  Solving for p, Initial residual = 0.00266499, Final residual = 0.000232752, No Iterations 6
time step continuity errors : sum local = 0.00428967, global = -5.33631e-20, cumulative = 1.91681e-16
Pressure gradient source: uncorrected Ubar = 0.999816, pressure gradient = 6.19902
smoothSolver:  Solving for omega, Initial residual = 0.0191075, Final residual = 0.00125954, No Iterations 6
smoothSolver:  Solving for k, Initial residual = 0.0149014, Final residual = 0.00114701, No Iterations 6
ExecutionTime = 0.113368 s  ClockTime = 0 s

Time = 38s

smoothSolver:  Solving for Ux, Initial residual = 0.00650223, Final residual = 0.000551645, No Iterations 5
smoothSolver:  Solving for Uy, Initial residual = 0.0344588, Final residual = 0.00276726, No Iterations 5
Pressure gradient source: uncorrected Ubar = 0.999776, pressure gradient = 6.34014
GAMG:  Solving for p, Initial residual = 0.00249899, Final residual = 0.000231152, No Iterations 12
time step continuity errors : sum local = 0.00369927, global = -1.11944e-16, cumulative = 7.97369e-17
Pressure gradient source: uncorrected Ubar = 0.999806, pressure gradient = 6.32092
smoothSolver:  Solving for omega, Initial residual = 0.0178158, Final residual = 0.00119509, No Iterations 6
smoothSolver:  Solving for k, Initial residual = 0.0134666, Final residual = 0.00102965, No Iterations 6
ExecutionTime = 0.116318 s  ClockTime = 0 s

Time = 39s

smoothSolver:  Solving for Ux, Initial residual = 0.00628903, Final residual = 0.000531895, No Iterations 5
smoothSolver:  Solving for Uy, Initial residual = 0.0285868, Final residual = 0.00240875, No Iterations 5
Pressure gradient source: uncorrected Ubar = 0.999873, pressure gradient = 6.40523
GAMG:  Solving for p, Initial residual = 0.00216965, Final residual = 0.000197185, No Iterations 16
time step continuity errors : sum local = 0.00267717, global = 7.94178e-17, cumulative = 1.59155e-16
Pressure gradient source: uncorrected Ubar = 0.999825, pressure gradient = 6.43674
smoothSolver:  Solving for omega, Initial residual = 0.0164546, Final residual = 0.00113599, No Iterations 6
smoothSolver:  Solving for k, Initial residual = 0.0123631, Final residual = 0.000951227, No Iterations 6
ExecutionTime = 0.119445 s  ClockTime = 0 s

Time = 40s

smoothSolver:  Solving for Ux, Initial residual = 0.00609425, Final residual = 0.000514357, No Iterations 5
smoothSolver:  Solving for Uy, Initial residual = 0.0240525, Final residual = 0.00212156, No Iterations 5
Pressure gradient source: uncorrected Ubar = 0.999998, pressure gradient = 6.43807
GAMG:  Solving for p, Initial residual = 0.00199157, Final residual = 0.000170788, No Iterations 18
time step continuity errors : sum local = 0.00193362, global = -6.30464e-17, cumulative = 9.61083e-17
Pressure gradient source: uncorrected Ubar = 0.999854, pressure gradient = 6.53926
smoothSolver:  Solving for omega, Initial residual = 0.0152586, Final residual = 0.00107772, No Iterations 6
smoothSolver:  Solving for k, Initial residual = 0.011313, Final residual = 0.000869543, No Iterations 6
ExecutionTime = 0.122647 s  ClockTime = 0 s

Time = 41s

smoothSolver:  Solving for Ux, Initial residual = 0.00592358, Final residual = 0.000499364, No Iterations 5
smoothSolver:  Solving for Uy, Initial residual = 0.0217252, Final residual = 0.00199948, No Iterations 5
Pressure gradient source: uncorrected Ubar = 1.00015, pressure gradient = 6.42559
GAMG:  Solving for p, Initial residual = 0.00181817, Final residual = 0.000181195, No Iterations 9
time step continuity errors : sum local = 0.00181808, global = 7.06898e-17, cumulative = 1.66798e-16
Pressure gradient source: uncorrected Ubar = 0.99988, pressure gradient = 6.62753
smoothSolver:  Solving for omega, Initial residual = 0.0138812, Final residual = 0.00100061, No Iterations 6
smoothSolver:  Solving for k, Initial residual = 0.0103905, Final residual = 0.000805365, No Iterations 6
ExecutionTime = 0.125416 s  ClockTime = 0 s

Time = 42s

smoothSolver:  Solving for Ux, Initial residual = 0.00576887, Final residual = 0.000486004, No Iterations 5
smoothSolver:  Solving for Uy, Initial residual = 0.0209823, Final residual = 0.00198851, No Iterations 5
Pressure gradient source: uncorrected Ubar = 1.0005, pressure gradient = 6.24183
GAMG:  Solving for p, Initial residual = 0.00162663, Final residual = 0.000148322, No Iterations 17
time step continuity errors : sum local = 0.00124498, global = -3.77302e-17, cumulative = 1.29068e-16
Pressure gradient source: uncorrected Ubar = 0.999937, pressure gradient = 6.67662
smoothSolver:  Solving for omega, Initial residual = 0.0128818, Final residual = 0.000934506, No Iterations 6
smoothSolver:  Solving for k, Initial residual = 0.00965055, Final residual = 0.000750482, No Iterations 6
ExecutionTime = 0.128553 s  ClockTime = 0 s

Time = 43s

smoothSolver:  Solving for Ux, Initial residual = 0.00562696, Final residual = 0.000474315, No Iterations 5
smoothSolver:  Solving for Uy, Initial residual = 0.0210141, Final residual = 0.00202751, No Iterations 5
Pressure gradient source: uncorrected Ubar = 1.00042, pressure gradient = 6.33752
GAMG:  Solving for p, Initial residual = 0.00138275, Final residual = 0.000137085, No Iterations 15
time step continuity errors : sum local = 0.00103265, global = 1.24195e-16, cumulative = 2.53263e-16
Pressure gradient source: uncorrected Ubar = 0.999927, pressure gradient = 6.73614
smoothSolver:  Solving for omega, Initial residual = 0.0119979, Final residual = 0.00087968, No Iterations 6
smoothSolver:  Solving for k, Initial residual = 0.00896382, Final residual = 0.000701842, No Iterations 6
ExecutionTime = 0.131696 s  ClockTime = 0 s

Time = 44s

smoothSolver:  Solving for Ux, Initial residual = 0.00549617, Final residual = 0.000464091, No Iterations 5
smoothSolver:  Solving for Uy, Initial residual = 0.0217371, Final residual = 0.00211254, No Iterations 5
Pressure gradient source: uncorrected Ubar = 1.0006, pressure gradient = 6.22319
GAMG:  Solving for p, Initial residual = 0.00120456, Final residual = 0.000104369, No Iterations 15
time step continuity errors : sum local = 0.000740174, global = -7.34547e-18, cumulative = 2.45918e-16
Pressure gradient source: uncorrected Ubar = 0.99996, pressure gradient = 6.77037
smoothSolver:  Solving for omega, Initial residual = 0.0112911, Final residual = 0.000854546, No Iterations 6
smoothSolver:  Solving for k, Initial residual = 0.00835155, Final residual = 0.000653837, No Iterations 6
ExecutionTime = 0.134901 s  ClockTime = 0 s

Time = 45s

smoothSolver:  Solving for Ux, Initial residual = 0.00537711, Final residual = 0.00045523, No Iterations 5
smoothSolver:  Solving for Uy, Initial residual = 0.0224349, Final residual = 0.00220008, No Iterations 5
Pressure gradient source: uncorrected Ubar = 1.00059, pressure gradient = 6.24832
GAMG:  Solving for p, Initial residual = 0.00108992, Final residual = 0.000108431, No Iterations 11
time step continuity errors : sum local = 0.000672724, global = -5.09846e-17, cumulative = 1.94933e-16
Pressure gradient source: uncorrected Ubar = 0.99996, pressure gradient = 6.80552
smoothSolver:  Solving for omega, Initial residual = 0.0105035, Final residual = 0.00078427, No Iterations 6
smoothSolver:  Solving for k, Initial residual = 0.00781805, Final residual = 0.00061556, No Iterations 6
ExecutionTime = 0.137781 s  ClockTime = 0 s

Time = 46s

smoothSolver:  Solving for Ux, Initial residual = 0.00526938, Final residual = 0.000447352, No Iterations 5
smoothSolver:  Solving for Uy, Initial residual = 0.0230609, Final residual = 0.00148644, No Iterations 6
Pressure gradient source: uncorrected Ubar = 1.00072, pressure gradient = 6.14649
GAMG:  Solving for p, Initial residual = 0.000950138, Final residual = 8.84833e-05, No Iterations 5
time step continuity errors : sum local = 0.000532509, global = -1.3146e-17, cumulative = 1.81787e-16
Pressure gradient source: uncorrected Ubar = 0.999984, pressure gradient = 6.82041
smoothSolver:  Solving for omega, Initial residual = 0.00994325, Final residual = 0.000748795, No Iterations 6
smoothSolver:  Solving for k, Initial residual = 0.00736702, Final residual = 0.000580534, No Iterations 6
ExecutionTime = 0.140379 s  ClockTime = 0 s

Time = 47s

smoothSolver:  Solving for Ux, Initial residual = 0.00516769, Final residual = 0.000440052, No Iterations 5
smoothSolver:  Solving for Uy, Initial residual = 0.0232698, Final residual = 0.00153818, No Iterations 6
Pressure gradient source: uncorrected Ubar = 1.00072, pressure gradient = 6.12921
GAMG:  Solving for p, Initial residual = 0.000837263, Final residual = 7.70004e-05, No Iterations 10
time step continuity errors : sum local = 0.000399179, global = -1.64664e-17, cumulative = 1.65321e-16
Pressure gradient source: uncorrected Ubar = 0.999987, pressure gradient = 6.83245
smoothSolver:  Solving for omega, Initial residual = 0.00940699, Final residual = 0.000711071, No Iterations 6
smoothSolver:  Solving for k, Initial residual = 0.00695605, Final residual = 0.000539969, No Iterations 6
ExecutionTime = 0.1432 s  ClockTime = 0 s

Time = 48s

smoothSolver:  Solving for Ux, Initial residual = 0.00507179, Final residual = 0.000433398, No Iterations 5
smoothSolver:  Solving for Uy, Initial residual = 0.0231256, Final residual = 0.00158262, No Iterations 6
Pressure gradient source: uncorrected Ubar = 1.00071, pressure gradient = 6.13058
GAMG:  Solving for p, Initial residual = 0.000750417, Final residual = 7.27401e-05, No Iterations 12
time step continuity errors : sum local = 0.000369671, global = -6.46184e-17, cumulative = 1.00702e-16
Pressure gradient source: uncorrected Ubar = 0.999988, pressure gradient = 6.84391
smoothSolver:  Solving for omega, Initial residual = 0.00894184, Final residual = 0.000678688, No Iterations 6
smoothSolver:  Solving for k, Initial residual = 0.00672067, Final residual = 0.000520265, No Iterations 6
ExecutionTime = 0.146118 s  ClockTime = 0 s

Time = 49s

smoothSolver:  Solving for Ux, Initial residual = 0.00498313, Final residual = 0.000427595, No Iterations 5
smoothSolver:  Solving for Uy, Initial residual = 0.0236105, Final residual = 0.00164527, No Iterations 6
Pressure gradient source: uncorrected Ubar = 1.00075, pressure gradient = 6.07475
GAMG:  Solving for p, Initial residual = 0.00069086, Final residual = 5.94982e-05, No Iterations 14
time step continuity errors : sum local = 0.000317368, global = 4.99817e-17, cumulative = 1.50684e-16
Pressure gradient source: uncorrected Ubar = 0.999998, pressure gradient = 6.84636
smoothSolver:  Solving for omega, Initial residual = 0.00844248, Final residual = 0.000639852, No Iterations 6
smoothSolver:  Solving for k, Initial residual = 0.00648897, Final residual = 0.000494221, No Iterations 6
ExecutionTime = 0.14911 s  ClockTime = 0 s

Time = 50s

smoothSolver:  Solving for Ux, Initial residual = 0.00490083, Final residual = 0.000422223, No Iterations 5
smoothSolver:  Solving for Uy, Initial residual = 0.0239538, Final residual = 0.00168638, No Iterations 6
Pressure gradient source: uncorrected Ubar = 1.00074, pressure gradient = 6.05235
GAMG:  Solving for p, Initial residual = 0.000670653, Final residual = 6.27854e-05, No Iterations 14
time step continuity errors : sum local = 0.000328599, global = -1.51219e-16, cumulative = -5.35128e-19
Pressure gradient source: uncorrected Ubar = 1, pressure gradient = 6.84627
smoothSolver:  Solving for omega, Initial residual = 0.00810086, Final residual = 0.000622702, No Iterations 6
smoothSolver:  Solving for k, Initial residual = 0.00630623, Final residual = 0.000477259, No Iterations 6
ExecutionTime = 0.152125 s  ClockTime = 0 s

Time = 51s

smoothSolver:  Solving for Ux, Initial residual = 0.00482293, Final residual = 0.000417104, No Iterations 5
smoothSolver:  Solving for Uy, Initial residual = 0.0239246, Final residual = 0.00170222, No Iterations 6
Pressure gradient source: uncorrected Ubar = 1.00073, pressure gradient = 6.04071
GAMG:  Solving for p, Initial residual = 0.000656477, Final residual = 6.19477e-05, No Iterations 16
time step continuity errors : sum local = 0.000315219, global = -1.24548e-17, cumulative = -1.29899e-17
Pressure gradient source: uncorrected Ubar = 1, pressure gradient = 6.84571
smoothSolver:  Solving for omega, Initial residual = 0.00765435, Final residual = 0.000584747, No Iterations 6
smoothSolver:  Solving for k, Initial residual = 0.00615828, Final residual = 0.000467423, No Iterations 6
ExecutionTime = 0.15521 s  ClockTime = 0 s

Time = 52s

smoothSolver:  Solving for Ux, Initial residual = 0.00474833, Final residual = 0.000412167, No Iterations 5
smoothSolver:  Solving for Uy, Initial residual = 0.0237534, Final residual = 0.00171162, No Iterations 6
Pressure gradient source: uncorrected Ubar = 1.00071, pressure gradient = 6.03386
GAMG:  Solving for p, Initial residual = 0.000646502, Final residual = 6.085e-05, No Iterations 18
time step continuity errors : sum local = 0.000293045, global = 4.42083e-17, cumulative = 3.12184e-17
Pressure gradient source: uncorrected Ubar = 1, pressure gradient = 6.84553
smoothSolver:  Solving for omega, Initial residual = 0.00733225, Final residual = 0.00056317, No Iterations 6
smoothSolver:  Solving for k, Initial residual = 0.0060428, Final residual = 0.000461366, No Iterations 6
ExecutionTime = 0.158382 s  ClockTime = 0 s

Time = 53s

smoothSolver:  Solving for Ux, Initial residual = 0.00467732, Final residual = 0.000407594, No Iterations 5
smoothSolver:  Solving for Uy, Initial residual = 0.0239344, Final residual = 0.00174204, No Iterations 6
Pressure gradient source: uncorrected Ubar = 1.0007, pressure gradient = 6.02245
GAMG:  Solving for p, Initial residual = 0.000665659, Final residual = 5.87139e-05, No Iterations 20
time step continuity errors : sum local = 0.000262618, global = 8.96094e-17, cumulative = 1.20828e-16
Pressure gradient source: uncorrected Ubar = 1, pressure gradient = 6.84496
smoothSolver:  Solving for omega, Initial residual = 0.006993, Final residual = 0.000536528, No Iterations 6
smoothSolver:  Solving for k, Initial residual = 0.00597089, Final residual = 0.000456421, No Iterations 6
ExecutionTime = 0.161669 s  ClockTime = 0 s

Time = 54s

smoothSolver:  Solving for Ux, Initial residual = 0.00460966, Final residual = 0.000403417, No Iterations 5
smoothSolver:  Solving for Uy, Initial residual = 0.0241081, Final residual = 0.00176519, No Iterations 6
Pressure gradient source: uncorrected Ubar = 1.00069, pressure gradient = 6.01124
GAMG:  Solving for p, Initial residual = 0.000668622, Final residual = 6.3113e-05, No Iterations 20
time step continuity errors : sum local = 0.000258003, global = -2.79589e-17, cumulative = 9.28689e-17
Pressure gradient source: uncorrected Ubar = 1, pressure gradient = 6.84435
smoothSolver:  Solving for omega, Initial residual = 0.00668545, Final residual = 0.000516331, No Iterations 6
smoothSolver:  Solving for k, Initial residual = 0.00591979, Final residual = 0.000457704, No Iterations 6
ExecutionTime = 0.164936 s  ClockTime = 0 s

Time = 55s

smoothSolver:  Solving for Ux, Initial residual = 0.00454646, Final residual = 0.000399289, No Iterations 5
smoothSolver:  Solving for Uy, Initial residual = 0.0239802, Final residual = 0.00176619, No Iterations 6
Pressure gradient source: uncorrected Ubar = 1.00068, pressure gradient = 5.99582
GAMG:  Solving for p, Initial residual = 0.000711372, Final residual = 6.6994e-05, No Iterations 20
time step continuity errors : sum local = 0.000250139, global = -2.95448e-18, cumulative = 8.99145e-17
Pressure gradient source: uncorrected Ubar = 1, pressure gradient = 6.84287
smoothSolver:  Solving for omega, Initial residual = 0.00640428, Final residual = 0.000497663, No Iterations 6
smoothSolver:  Solving for k, Initial residual = 0.00585042, Final residual = 0.000451586, No Iterations 6
ExecutionTime = 0.168225 s  ClockTime = 0 s

Time = 56s

smoothSolver:  Solving for Ux, Initial residual = 0.0044858, Final residual = 0.000395348, No Iterations 5
smoothSolver:  Solving for Uy, Initial residual = 0.0237988, Final residual = 0.00176384, No Iterations 6
Pressure gradient source: uncorrected Ubar = 1.00067, pressure gradient = 5.98107
GAMG:  Solving for p, Initial residual = 0.000705116, Final residual = 6.88765e-05, No Iterations 20
time step continuity errors : sum local = 0.000235093, global = -1.38913e-17, cumulative = 7.60231e-17
Pressure gradient source: uncorrected Ubar = 1, pressure gradient = 6.84064
smoothSolver:  Solving for omega, Initial residual = 0.00615395, Final residual = 0.000476462, No Iterations 6
smoothSolver:  Solving for k, Initial residual = 0.0058125, Final residual = 0.000451156, No Iterations 6
ExecutionTime = 0.171541 s  ClockTime = 0 s

Time = 57s

smoothSolver:  Solving for Ux, Initial residual = 0.00442696, Final residual = 0.000391408, No Iterations 5
smoothSolver:  Solving for Uy, Initial residual = 0.0236749, Final residual = 0.0017587, No Iterations 6
Pressure gradient source: uncorrected Ubar = 1.00067, pressure gradient = 5.95722
GAMG:  Solving for p, Initial residual = 0.000703398, Final residual = 6.97415e-05, No Iterations 20
time step continuity errors : sum local = 0.000217939, global = -3.08998e-17, cumulative = 4.51234e-17
Pressure gradient source: uncorrected Ubar = 1, pressure gradient = 6.8362
smoothSolver:  Solving for omega, Initial residual = 0.00588607, Final residual = 0.000457069, No Iterations 6
smoothSolver:  Solving for k, Initial residual = 0.00576109, Final residual = 0.000447009, No Iterations 6
ExecutionTime = 0.174845 s  ClockTime = 0 s

Time = 58s

smoothSolver:  Solving for Ux, Initial residual = 0.00437015, Final residual = 0.000387771, No Iterations 5
smoothSolver:  Solving for Uy, Initial residual = 0.023812, Final residual = 0.00177692, No Iterations 6
Pressure gradient source: uncorrected Ubar = 1.00066, pressure gradient = 5.94331
GAMG:  Solving for p, Initial residual = 0.000707605, Final residual = 6.96597e-05, No Iterations 20
time step continuity errors : sum local = 0.000199318, global = -1.34712e-17, cumulative = 3.16521e-17
Pressure gradient source: uncorrected Ubar = 1, pressure gradient = 6.83158
smoothSolver:  Solving for omega, Initial residual = 0.00564983, Final residual = 0.000438046, No Iterations 6
smoothSolver:  Solving for k, Initial residual = 0.00571568, Final residual = 0.000445485, No Iterations 6
ExecutionTime = 0.178115 s  ClockTime = 0 s

Time = 59s

smoothSolver:  Solving for Ux, Initial residual = 0.00431565, Final residual = 0.000384359, No Iterations 5
smoothSolver:  Solving for Uy, Initial residual = 0.0239946, Final residual = 0.00179741, No Iterations 6
Pressure gradient source: uncorrected Ubar = 1.00065, pressure gradient = 5.91622
GAMG:  Solving for p, Initial residual = 0.000704664, Final residual = 6.78261e-05, No Iterations 20
time step continuity errors : sum local = 0.000178432, global = -2.84332e-17, cumulative = 3.21894e-18
Pressure gradient source: uncorrected Ubar = 1, pressure gradient = 6.8246
smoothSolver:  Solving for omega, Initial residual = 0.00546279, Final residual = 0.000427983, No Iterations 6
smoothSolver:  Solving for k, Initial residual = 0.00568535, Final residual = 0.000443782, No Iterations 6
ExecutionTime = 0.181564 s  ClockTime = 0 s

Time = 60s

smoothSolver:  Solving for Ux, Initial residual = 0.00426356, Final residual = 0.000381014, No Iterations 5
smoothSolver:  Solving for Uy, Initial residual = 0.0240128, Final residual = 0.00180882, No Iterations 6
Pressure gradient source: uncorrected Ubar = 1.00064, pressure gradient = 5.90647
GAMG:  Solving for p, Initial residual = 0.000713614, Final residual = 6.43931e-05, No Iterations 20
time step continuity errors : sum local = 0.000155409, global = 7.78322e-17, cumulative = 8.10511e-17
Pressure gradient source: uncorrected Ubar = 1, pressure gradient = 6.81858
smoothSolver:  Solving for omega, Initial residual = 0.00524746, Final residual = 0.000413176, No Iterations 6
smoothSolver:  Solving for k, Initial residual = 0.00564942, Final residual = 0.00044287, No Iterations 6
ExecutionTime = 0.184825 s  ClockTime = 0 s

Time = 61s

smoothSolver:  Solving for Ux, Initial residual = 0.00421413, Final residual = 0.000377717, No Iterations 5
smoothSolver:  Solving for Uy, Initial residual = 0.0238063, Final residual = 0.00180107, No Iterations 6
Pressure gradient source: uncorrected Ubar = 1.00067, pressure gradient = 5.82648
GAMG:  Solving for p, Initial residual = 0.000721568, Final residual = 6.62851e-05, No Iterations 18
time step continuity errors : sum local = 0.000145757, global = -1.19465e-17, cumulative = 6.91046e-17
Pressure gradient source: uncorrected Ubar = 1.00001, pressure gradient = 6.80138
smoothSolver:  Solving for omega, Initial residual = 0.00507363, Final residual = 0.000398823, No Iterations 6
smoothSolver:  Solving for k, Initial residual = 0.0056062, Final residual = 0.000439327, No Iterations 6
ExecutionTime = 0.188024 s  ClockTime = 0 s

Time = 62s

smoothSolver:  Solving for Ux, Initial residual = 0.00416607, Final residual = 0.000374446, No Iterations 5
smoothSolver:  Solving for Uy, Initial residual = 0.0235981, Final residual = 0.0017891, No Iterations 6
Pressure gradient source: uncorrected Ubar = 1.00067, pressure gradient = 5.79711
GAMG:  Solving for p, Initial residual = 0.000779878, Final residual = 7.07378e-05, No Iterations 16
time step continuity errors : sum local = 0.000141367, global = -4.43303e-17, cumulative = 2.47743e-17
Pressure gradient source: uncorrected Ubar = 1.00001, pressure gradient = 6.78344
smoothSolver:  Solving for omega, Initial residual = 0.00491426, Final residual = 0.000388917, No Iterations 6
smoothSolver:  Solving for k, Initial residual = 0.00558295, Final residual = 0.000440824, No Iterations 6
ExecutionTime = 0.19114 s  ClockTime = 0 s

Time = 63s

smoothSolver:  Solving for Ux, Initial residual = 0.00411946, Final residual = 0.000371266, No Iterations 5
smoothSolver:  Solving for Uy, Initial residual = 0.023632, Final residual = 0.00179692, No Iterations 6
Pressure gradient source: uncorrected Ubar = 1.00066, pressure gradient = 5.76207
GAMG:  Solving for p, Initial residual = 0.000797747, Final residual = 7.4401e-05, No Iterations 15
time step continuity errors : sum local = 0.000140561, global = 5.68529e-17, cumulative = 8.16271e-17
Pressure gradient source: uncorrected Ubar = 1.00001, pressure gradient = 6.76391
smoothSolver:  Solving for omega, Initial residual = 0.00474312, Final residual = 0.000371527, No Iterations 6
smoothSolver:  Solving for k, Initial residual = 0.00555346, Final residual = 0.000437687, No Iterations 6
ExecutionTime = 0.194195 s  ClockTime = 0 s

Time = 64s

smoothSolver:  Solving for Ux, Initial residual = 0.0040738, Final residual = 0.000368314, No Iterations 5
smoothSolver:  Solving for Uy, Initial residual = 0.0236436, Final residual = 0.00180326, No Iterations 6
Pressure gradient source: uncorrected Ubar = 1.00064, pressure gradient = 5.74661
GAMG:  Solving for p, Initial residual = 0.000815995, Final residual = 7.7997e-05, No Iterations 15
time step continuity errors : sum local = 0.000135148, global = 1.34306e-17, cumulative = 9.50577e-17
Pressure gradient source: uncorrected Ubar = 1.00001, pressure gradient = 6.74642
smoothSolver:  Solving for omega, Initial residual = 0.00462631, Final residual = 0.000370055, No Iterations 6
smoothSolver:  Solving for k, Initial residual = 0.00552771, Final residual = 0.000438213, No Iterations 6
ExecutionTime = 0.197226 s  ClockTime = 0 s

Time = 65s

smoothSolver:  Solving for Ux, Initial residual = 0.0040298, Final residual = 0.00036544, No Iterations 5
smoothSolver:  Solving for Uy, Initial residual = 0.0234157, Final residual = 0.00178951, No Iterations 6
Pressure gradient source: uncorrected Ubar = 1.00063, pressure gradient = 5.72777
GAMG:  Solving for p, Initial residual = 0.000852175, Final residual = 8.10099e-05, No Iterations 15
time step continuity errors : sum local = 0.000128852, global = -1.97864e-18, cumulative = 9.3079e-17
Pressure gradient source: uncorrected Ubar = 1.00001, pressure gradient = 6.73014
smoothSolver:  Solving for omega, Initial residual = 0.00448071, Final residual = 0.000353117, No Iterations 6
smoothSolver:  Solving for k, Initial residual = 0.0055047, Final residual = 0.000436647, No Iterations 6
ExecutionTime = 0.200273 s  ClockTime = 0 s

Time = 66s

smoothSolver:  Solving for Ux, Initial residual = 0.00398766, Final residual = 0.000362569, No Iterations 5
smoothSolver:  Solving for Uy, Initial residual = 0.023207, Final residual = 0.00177856, No Iterations 6
Pressure gradient source: uncorrected Ubar = 1.00062, pressure gradient = 5.70187
GAMG:  Solving for p, Initial residual = 0.000870363, Final residual = 8.34385e-05, No Iterations 15
time step continuity errors : sum local = 0.000121394, global = -2.69698e-18, cumulative = 9.0382e-17
Pressure gradient source: uncorrected Ubar = 1.00001, pressure gradient = 6.71388
smoothSolver:  Solving for omega, Initial residual = 0.00435882, Final residual = 0.000343766, No Iterations 6
smoothSolver:  Solving for k, Initial residual = 0.00547615, Final residual = 0.000437349, No Iterations 6
ExecutionTime = 0.203319 s  ClockTime = 0 s

Time = 67s

smoothSolver:  Solving for Ux, Initial residual = 0.00394609, Final residual = 0.000359711, No Iterations 5
smoothSolver:  Solving for Uy, Initial residual = 0.0230219, Final residual = 0.00177141, No Iterations 6
Pressure gradient source: uncorrected Ubar = 1.00061, pressure gradient = 5.68382
GAMG:  Solving for p, Initial residual = 0.000923391, Final residual = 8.71752e-05, No Iterations 15
time step continuity errors : sum local = 0.000115145, global = 2.64613e-17, cumulative = 1.16843e-16
Pressure gradient source: uncorrected Ubar = 1.00001, pressure gradient = 6.69909
smoothSolver:  Solving for omega, Initial residual = 0.00426335, Final residual = 0.000337297, No Iterations 6
smoothSolver:  Solving for k, Initial residual = 0.00544435, Final residual = 0.000434178, No Iterations 6
ExecutionTime = 0.206362 s  ClockTime = 0 s

Time = 68s

smoothSolver:  Solving for Ux, Initial residual = 0.00390495, Final residual = 0.000356767, No Iterations 5
smoothSolver:  Solving for Uy, Initial residual = 0.0227169, Final residual = 0.00175012, No Iterations 6
Pressure gradient source: uncorrected Ubar = 1.00059, pressure gradient = 5.67326
GAMG:  Solving for p, Initial residual = 0.00102992, Final residual = 8.94637e-05, No Iterations 19
time step continuity errors : sum local = 0.00010738, global = -1.74827e-18, cumulative = 1.15095e-16
Pressure gradient source: uncorrected Ubar = 1.00001, pressure gradient = 6.687
smoothSolver:  Solving for omega, Initial residual = 0.00417027, Final residual = 0.000327451, No Iterations 6
smoothSolver:  Solving for k, Initial residual = 0.00541683, Final residual = 0.000433552, No Iterations 6
ExecutionTime = 0.209592 s  ClockTime = 0 s

Time = 69s

smoothSolver:  Solving for Ux, Initial residual = 0.00386517, Final residual = 0.000354002, No Iterations 5
smoothSolver:  Solving for Uy, Initial residual = 0.0225155, Final residual = 0.0017401, No Iterations 6
Pressure gradient source: uncorrected Ubar = 1.0006, pressure gradient = 5.62953
GAMG:  Solving for p, Initial residual = 0.00111743, Final residual = 9.68522e-05, No Iterations 19
time step continuity errors : sum local = 0.000105536, global = 4.33694e-19, cumulative = 1.15529e-16
Pressure gradient source: uncorrected Ubar = 1.00001, pressure gradient = 6.67186
smoothSolver:  Solving for omega, Initial residual = 0.0040864, Final residual = 0.000323506, No Iterations 6
smoothSolver:  Solving for k, Initial residual = 0.00540742, Final residual = 0.00043396, No Iterations 6
ExecutionTime = 0.212823 s  ClockTime = 0 s

Time = 70s

smoothSolver:  Solving for Ux, Initial residual = 0.0038259, Final residual = 0.000351332, No Iterations 5
smoothSolver:  Solving for Uy, Initial residual = 0.0223878, Final residual = 0.00172631, No Iterations 6
Pressure gradient source: uncorrected Ubar = 1.00058, pressure gradient = 5.61963
GAMG:  Solving for p, Initial residual = 0.00117302, Final residual = 0.000101568, No Iterations 19
time step continuity errors : sum local = 0.000100802, global = 6.35953e-17, cumulative = 1.79124e-16
Pressure gradient source: uncorrected Ubar = 1.00001, pressure gradient = 6.66004
smoothSolver:  Solving for omega, Initial residual = 0.00399099, Final residual = 0.000305509, No Iterations 6
smoothSolver:  Solving for k, Initial residual = 0.00538842, Final residual = 0.000434972, No Iterations 6
ExecutionTime = 0.216036 s  ClockTime = 0 s

Time = 71s

smoothSolver:  Solving for Ux, Initial residual = 0.00378875, Final residual = 0.000348788, No Iterations 5
smoothSolver:  Solving for Uy, Initial residual = 0.022243, Final residual = 0.00172096, No Iterations 6
Pressure gradient source: uncorrected Ubar = 1.00059, pressure gradient = 5.57107
GAMG:  Solving for p, Initial residual = 0.00119398, Final residual = 0.000104546, No Iterations 19
time step continuity errors : sum local = 9.44987e-05, global = -3.32579e-17, cumulative = 1.45866e-16
Pressure gradient source: uncorrected Ubar = 1.00001, pressure gradient = 6.64473
smoothSolver:  Solving for omega, Initial residual = 0.00391335, Final residual = 0.000302942, No Iterations 6
smoothSolver:  Solving for k, Initial residual = 0.00537717, Final residual = 0.000434557, No Iterations 6
ExecutionTime = 0.219289 s  ClockTime = 0 s

Time = 72s

smoothSolver:  Solving for Ux, Initial residual = 0.00375235, Final residual = 0.00034623, No Iterations 5
smoothSolver:  Solving for Uy, Initial residual = 0.0220675, Final residual = 0.00171196, No Iterations 6
Pressure gradient source: uncorrected Ubar = 1.00058, pressure gradient = 5.54708
GAMG:  Solving for p, Initial residual = 0.00126896, Final residual = 0.000109151, No Iterations 19
time step continuity errors : sum local = 8.8957e-05, global = 5.01986e-17, cumulative = 1.96065e-16
Pressure gradient source: uncorrected Ubar = 1.00001, pressure gradient = 6.63101
smoothSolver:  Solving for omega, Initial residual = 0.00384911, Final residual = 0.000297486, No Iterations 6
smoothSolver:  Solving for k, Initial residual = 0.00535448, Final residual = 0.000433953, No Iterations 6
ExecutionTime = 0.222527 s  ClockTime = 0 s

Time = 73s

smoothSolver:  Solving for Ux, Initial residual = 0.00371657, Final residual = 0.000343623, No Iterations 5
smoothSolver:  Solving for Uy, Initial residual = 0.0219578, Final residual = 0.00170456, No Iterations 6
Pressure gradient source: uncorrected Ubar = 1.00057, pressure gradient = 5.52526
GAMG:  Solving for p, Initial residual = 0.00139138, Final residual = 0.000134958, No Iterations 17
time step continuity errors : sum local = 9.73515e-05, global = 6.10541e-18, cumulative = 2.0217e-16
Pressure gradient source: uncorrected Ubar = 1.00001, pressure gradient = 6.61933
smoothSolver:  Solving for omega, Initial residual = 0.00379096, Final residual = 0.000289752, No Iterations 6
smoothSolver:  Solving for k, Initial residual = 0.00533331, Final residual = 0.000432679, No Iterations 6
ExecutionTime = 0.225664 s  ClockTime = 0 s

Time = 74s

smoothSolver:  Solving for Ux, Initial residual = 0.00368153, Final residual = 0.000341071, No Iterations 5
smoothSolver:  Solving for Uy, Initial residual = 0.0217816, Final residual = 0.00169557, No Iterations 6
Pressure gradient source: uncorrected Ubar = 1.00058, pressure gradient = 5.47167
GAMG:  Solving for p, Initial residual = 0.00149516, Final residual = 0.000142839, No Iterations 17
time step continuity errors : sum local = 9.36351e-05, global = -2.54246e-17, cumulative = 1.76746e-16
Pressure gradient source: uncorrected Ubar = 1.00001, pressure gradient = 6.6045
smoothSolver:  Solving for omega, Initial residual = 0.00373401, Final residual = 0.000285373, No Iterations 6
smoothSolver:  Solving for k, Initial residual = 0.00531562, Final residual = 0.000432114, No Iterations 6
ExecutionTime = 0.228788 s  ClockTime = 0 s

Time = 75s

smoothSolver:  Solving for Ux, Initial residual = 0.00364702, Final residual = 0.000338638, No Iterations 5
smoothSolver:  Solving for Uy, Initial residual = 0.0213985, Final residual = 0.00167304, No Iterations 6
Pressure gradient source: uncorrected Ubar = 1.00058, pressure gradient = 5.43773
GAMG:  Solving for p, Initial residual = 0.00178779, Final residual = 0.000153147, No Iterations 17
time step continuity errors : sum local = 8.92806e-05, global = 4.16808e-17, cumulative = 2.18426e-16
Pressure gradient source: uncorrected Ubar = 1.00001, pressure gradient = 6.59089
smoothSolver:  Solving for omega, Initial residual = 0.0036941, Final residual = 0.000285086, No Iterations 6
smoothSolver:  Solving for k, Initial residual = 0.00529643, Final residual = 0.000429619, No Iterations 6
ExecutionTime = 0.231948 s  ClockTime = 0 s

Time = 76s

smoothSolver:  Solving for Ux, Initial residual = 0.00361303, Final residual = 0.000336276, No Iterations 5
smoothSolver:  Solving for Uy, Initial residual = 0.0210043, Final residual = 0.00163782, No Iterations 6
Pressure gradient source: uncorrected Ubar = 1.00058, pressure gradient = 5.39456
GAMG:  Solving for p, Initial residual = 0.0019012, Final residual = 0.000164319, No Iterations 17
time step continuity errors : sum local = 8.47871e-05, global = -2.00645e-17, cumulative = 1.98362e-16
Pressure gradient source: uncorrected Ubar = 1.00001, pressure gradient = 6.57691
smoothSolver:  Solving for omega, Initial residual = 0.00361623, Final residual = 0.000272234, No Iterations 6
smoothSolver:  Solving for k, Initial residual = 0.00526125, Final residual = 0.0004248, No Iterations 6
ExecutionTime = 0.235109 s  ClockTime = 0 s

Time = 77s

smoothSolver:  Solving for Ux, Initial residual = 0.00358068, Final residual = 0.000334043, No Iterations 5
smoothSolver:  Solving for Uy, Initial residual = 0.0205457, Final residual = 0.00160558, No Iterations 6
Pressure gradient source: uncorrected Ubar = 1.00059, pressure gradient = 5.32694
GAMG:  Solving for p, Initial residual = 0.00201501, Final residual = 0.000201422, No Iterations 15
time step continuity errors : sum local = 9.14565e-05, global = -9.09476e-17, cumulative = 1.07414e-16
Pressure gradient source: uncorrected Ubar = 1.00001, pressure gradient = 6.5577
smoothSolver:  Solving for omega, Initial residual = 0.00352139, Final residual = 0.000271988, No Iterations 6
smoothSolver:  Solving for k, Initial residual = 0.00525736, Final residual = 0.000425298, No Iterations 6
ExecutionTime = 0.238159 s  ClockTime = 0 s

Time = 78s

smoothSolver:  Solving for Ux, Initial residual = 0.00354949, Final residual = 0.000331845, No Iterations 5
smoothSolver:  Solving for Uy, Initial residual = 0.020033, Final residual = 0.00156827, No Iterations 6
Pressure gradient source: uncorrected Ubar = 1.0006, pressure gradient = 5.24244
GAMG:  Solving for p, Initial residual = 0.00228261, Final residual = 0.000218286, No Iterations 15
time step continuity errors : sum local = 8.83462e-05, global = -3.1679e-18, cumulative = 1.04246e-16
Pressure gradient source: uncorrected Ubar = 1.00001, pressure gradient = 6.53212
smoothSolver:  Solving for omega, Initial residual = 0.00345461, Final residual = 0.00026817, No Iterations 6
smoothSolver:  Solving for k, Initial residual = 0.00523469, Final residual = 0.000423027, No Iterations 6
ExecutionTime = 0.241202 s  ClockTime = 0 s

Time = 79s

smoothSolver:  Solving for Ux, Initial residual = 0.00351926, Final residual = 0.000329684, No Iterations 5
smoothSolver:  Solving for Uy, Initial residual = 0.0194778, Final residual = 0.00152626, No Iterations 6
Pressure gradient source: uncorrected Ubar = 1.00061, pressure gradient = 5.17876
GAMG:  Solving for p, Initial residual = 0.00264466, Final residual = 0.000240727, No Iterations 15
time step continuity errors : sum local = 8.48902e-05, global = -5.59482e-17, cumulative = 4.82981e-17
Pressure gradient source: uncorrected Ubar = 1.00001, pressure gradient = 6.50533
smoothSolver:  Solving for omega, Initial residual = 0.00338277, Final residual = 0.000261624, No Iterations 6
smoothSolver:  Solving for k, Initial residual = 0.00524014, Final residual = 0.00042409, No Iterations 6
ExecutionTime = 0.244236 s  ClockTime = 0 s

Time = 80s

smoothSolver:  Solving for Ux, Initial residual = 0.00349032, Final residual = 0.000327628, No Iterations 5
smoothSolver:  Solving for Uy, Initial residual = 0.0189519, Final residual = 0.00148931, No Iterations 6
Pressure gradient source: uncorrected Ubar = 1.00061, pressure gradient = 5.10945
GAMG:  Solving for p, Initial residual = 0.00314833, Final residual = 0.000303092, No Iterations 13
time step continuity errors : sum local = 9.15048e-05, global = -8.30261e-17, cumulative = -3.47281e-17
Pressure gradient source: uncorrected Ubar = 1.00001, pressure gradient = 6.47702
smoothSolver:  Solving for omega, Initial residual = 0.0032926, Final residual = 0.000259046, No Iterations 6
smoothSolver:  Solving for k, Initial residual = 0.00522884, Final residual = 0.000423653, No Iterations 6
ExecutionTime = 0.247194 s  ClockTime = 0 s

Time = 81s

smoothSolver:  Solving for Ux, Initial residual = 0.00346245, Final residual = 0.000325713, No Iterations 5
smoothSolver:  Solving for Uy, Initial residual = 0.0184715, Final residual = 0.00145453, No Iterations 6
Pressure gradient source: uncorrected Ubar = 1.00061, pressure gradient = 5.03939
GAMG:  Solving for p, Initial residual = 0.00399955, Final residual = 0.000398163, No Iterations 11
time step continuity errors : sum local = 0.000103409, global = -1.41014e-17, cumulative = -4.88295e-17
Pressure gradient source: uncorrected Ubar = 1.00001, pressure gradient = 6.4478
smoothSolver:  Solving for omega, Initial residual = 0.00319852, Final residual = 0.000252694, No Iterations 6
smoothSolver:  Solving for k, Initial residual = 0.00522009, Final residual = 0.00042221, No Iterations 6
ExecutionTime = 0.250056 s  ClockTime = 0 s

Time = 82s

smoothSolver:  Solving for Ux, Initial residual = 0.00343623, Final residual = 0.000324003, No Iterations 5
smoothSolver:  Solving for Uy, Initial residual = 0.0179945, Final residual = 0.00141726, No Iterations 6
Pressure gradient source: uncorrected Ubar = 1.00063, pressure gradient = 4.92337
GAMG:  Solving for p, Initial residual = 0.00477838, Final residual = 0.000443842, No Iterations 11
time step continuity errors : sum local = 0.000103683, global = 4.50757e-17, cumulative = -3.75378e-18
Pressure gradient source: uncorrected Ubar = 1.00002, pressure gradient = 6.41156
smoothSolver:  Solving for omega, Initial residual = 0.00310766, Final residual = 0.000247646, No Iterations 6
smoothSolver:  Solving for k, Initial residual = 0.00521619, Final residual = 0.000421068, No Iterations 6
ExecutionTime = 0.252942 s  ClockTime = 0 s

Time = 83s

smoothSolver:  Solving for Ux, Initial residual = 0.00341176, Final residual = 0.000322387, No Iterations 5
smoothSolver:  Solving for Uy, Initial residual = 0.0175974, Final residual = 0.00138357, No Iterations 6
Pressure gradient source: uncorrected Ubar = 1.00064, pressure gradient = 4.84018
GAMG:  Solving for p, Initial residual = 0.00571931, Final residual = 0.000511693, No Iterations 11
time step continuity errors : sum local = 0.000103814, global = -8.52318e-17, cumulative = -8.89856e-17
Pressure gradient source: uncorrected Ubar = 1.00001, pressure gradient = 6.37541
smoothSolver:  Solving for omega, Initial residual = 0.0030162, Final residual = 0.000246, No Iterations 6
smoothSolver:  Solving for k, Initial residual = 0.00522722, Final residual = 0.000422296, No Iterations 6
ExecutionTime = 0.255831 s  ClockTime = 0 s

Time = 84s

smoothSolver:  Solving for Ux, Initial residual = 0.00338835, Final residual = 0.000320794, No Iterations 5
smoothSolver:  Solving for Uy, Initial residual = 0.0171602, Final residual = 0.00134464, No Iterations 6
Pressure gradient source: uncorrected Ubar = 1.00064, pressure gradient = 4.76182
GAMG:  Solving for p, Initial residual = 0.00718475, Final residual = 0.00071619, No Iterations 9
time step continuity errors : sum local = 0.000119011, global = -3.24583e-18, cumulative = -9.22315e-17
Pressure gradient source: uncorrected Ubar = 1.00001, pressure gradient = 6.34072
smoothSolver:  Solving for omega, Initial residual = 0.00299636, Final residual = 0.000237019, No Iterations 6
smoothSolver:  Solving for k, Initial residual = 0.00523803, Final residual = 0.000423173, No Iterations 6
ExecutionTime = 0.258619 s  ClockTime = 0 s

Time = 85s

smoothSolver:  Solving for Ux, Initial residual = 0.00336632, Final residual = 0.000319464, No Iterations 5
smoothSolver:  Solving for Uy, Initial residual = 0.0167947, Final residual = 0.00130893, No Iterations 6
Pressure gradient source: uncorrected Ubar = 1.00066, pressure gradient = 4.63227
GAMG:  Solving for p, Initial residual = 0.00859247, Final residual = 0.000817644, No Iterations 9
time step continuity errors : sum local = 0.000116817, global = 2.85077e-17, cumulative = -6.37237e-17
Pressure gradient source: uncorrected Ubar = 1.00002, pressure gradient = 6.29989
smoothSolver:  Solving for omega, Initial residual = 0.0033174, Final residual = 0.000235316, No Iterations 6
smoothSolver:  Solving for k, Initial residual = 0.00523723, Final residual = 0.00042057, No Iterations 6
ExecutionTime = 0.261416 s  ClockTime = 0 s

Time = 86s

smoothSolver:  Solving for Ux, Initial residual = 0.00334378, Final residual = 0.00031838, No Iterations 5
smoothSolver:  Solving for Uy, Initial residual = 0.016604, Final residual = 0.00128104, No Iterations 6
Pressure gradient source: uncorrected Ubar = 1.00044, pressure gradient = 5.13382
GAMG:  Solving for p, Initial residual = 0.00870537, Final residual = 0.000792689, No Iterations 6
time step continuity errors : sum local = 6.96722e-05, global = 1.60869e-17, cumulative = -4.76368e-17
Pressure gradient source: uncorrected Ubar = 0.999984, pressure gradient = 6.34264
smoothSolver:  Solving for omega, Initial residual = 0.0117198, Final residual = 0.000741591, No Iterations 3
smoothSolver:  Solving for k, Initial residual = 0.00584065, Final residual = 0.000420494, No Iterations 6
ExecutionTime = 0.264022 s  ClockTime = 0 s

Time = 87s

smoothSolver:  Solving for Ux, Initial residual = 0.00338144, Final residual = 0.000319089, No Iterations 5
smoothSolver:  Solving for Uy, Initial residual = 0.0210534, Final residual = 0.00152362, No Iterations 6
Pressure gradient source: uncorrected Ubar = 0.999097, pressure gradient = 8.55902
GAMG:  Solving for p, Initial residual = 0.150221, Final residual = 0.0108877, No Iterations 2
time step continuity errors : sum local = 0.00272206, global = 1.75776e-17, cumulative = -3.00592e-17
Pressure gradient source: uncorrected Ubar = 0.999843, pressure gradient = 6.72922
smoothSolver:  Solving for omega, Initial residual = 0.0204562, Final residual = 0.00125229, No Iterations 2
smoothSolver:  Solving for k, Initial residual = 0.00540571, Final residual = 0.000422388, No Iterations 6
ExecutionTime = 0.266474 s  ClockTime = 0 s

Time = 88s

smoothSolver:  Solving for Ux, Initial residual = 0.00332823, Final residual = 0.000317293, No Iterations 5
smoothSolver:  Solving for Uy, Initial residual = 0.0259332, Final residual = 0.00171713, No Iterations 6
Pressure gradient source: uncorrected Ubar = 1.00382, pressure gradient = -2.71232
GAMG:  Solving for p, Initial residual = 0.0358738, Final residual = 0.00260258, No Iterations 3
time step continuity errors : sum local = 0.00106718, global = -1.17503e-17, cumulative = -4.18095e-17
Pressure gradient source: uncorrected Ubar = 1.00063, pressure gradient = 5.17886
smoothSolver:  Solving for omega, Initial residual = 0.015645, Final residual = 0.00142737, No Iterations 2
smoothSolver:  Solving for k, Initial residual = 0.00518343, Final residual = 0.000428027, No Iterations 6
ExecutionTime = 0.268944 s  ClockTime = 0 s

Time = 89s

smoothSolver:  Solving for Ux, Initial residual = 0.00332861, Final residual = 0.000321599, No Iterations 5
smoothSolver:  Solving for Uy, Initial residual = 0.0174448, Final residual = 0.0013243, No Iterations 6
Pressure gradient source: uncorrected Ubar = 1.00051, pressure gradient = 3.90393
GAMG:  Solving for p, Initial residual = 0.017059, Final residual = 0.000874222, No Iterations 3
time step continuity errors : sum local = 0.000294881, global = -1.26244e-17, cumulative = -5.44338e-17
Pressure gradient source: uncorrected Ubar = 1.00001, pressure gradient = 5.1465
smoothSolver:  Solving for omega, Initial residual = 0.00772521, Final residual = 0.000556375, No Iterations 4
[...]
smoothSolver:  Solving for k, Initial residual = 2.2491e-05, Final residual = 9.22375e-06, No Iterations 2
ExecutionTime = 10.3024 s  ClockTime = 10 s

Time = 3989s

smoothSolver:  Solving for Ux, Initial residual = 3.27159e-06, Final residual = 3.27159e-06, No Iterations 0
smoothSolver:  Solving for Uy, Initial residual = 0.000124393, Final residual = 1.01336e-05, No Iterations 5
Pressure gradient source: uncorrected Ubar = 1, pressure gradient = 0.00372698
GAMG:  Solving for p, Initial residual = 3.14446e-05, Final residual = 2.10434e-06, No Iterations 4
time step continuity errors : sum local = 3.85956e-11, global = 3.49664e-19, cumulative = -6.3139e-16
Pressure gradient source: uncorrected Ubar = 1, pressure gradient = 0.00372694
smoothSolver:  Solving for omega, Initial residual = 5.746e-06, Final residual = 5.746e-06, No Iterations 0
smoothSolver:  Solving for k, Initial residual = 2.23456e-05, Final residual = 9.13362e-06, No Iterations 2
ExecutionTime = 10.3048 s  ClockTime = 10 s

Time = 3990s

smoothSolver:  Solving for Ux, Initial residual = 3.26445e-06, Final residual = 3.26445e-06, No Iterations 0
smoothSolver:  Solving for Uy, Initial residual = 0.000111749, Final residual = 9.09195e-06, No Iterations 5
Pressure gradient source: uncorrected Ubar = 1, pressure gradient = 0.00372694
GAMG:  Solving for p, Initial residual = 2.61695e-05, Final residual = 2.45963e-06, No Iterations 5
time step continuity errors : sum local = 4.41847e-11, global = 5.23156e-18, cumulative = -6.26158e-16
Pressure gradient source: uncorrected Ubar = 1, pressure gradient = 0.0037269
smoothSolver:  Solving for omega, Initial residual = 5.74587e-06, Final residual = 5.74587e-06, No Iterations 0
smoothSolver:  Solving for k, Initial residual = 2.23164e-05, Final residual = 9.12686e-06, No Iterations 2
ExecutionTime = 10.3073 s  ClockTime = 10 s

Time = 3991s

smoothSolver:  Solving for Ux, Initial residual = 3.25822e-06, Final residual = 3.25822e-06, No Iterations 0
smoothSolver:  Solving for Uy, Initial residual = 0.000115441, Final residual = 9.85356e-06, No Iterations 5
Pressure gradient source: uncorrected Ubar = 1, pressure gradient = 0.0037269
GAMG:  Solving for p, Initial residual = 2.90537e-05, Final residual = 2.49308e-06, No Iterations 4
time step continuity errors : sum local = 4.5051e-11, global = 2.73636e-19, cumulative = -6.25885e-16
Pressure gradient source: uncorrected Ubar = 1, pressure gradient = 0.00372686
smoothSolver:  Solving for omega, Initial residual = 5.74574e-06, Final residual = 5.74574e-06, No Iterations 0
smoothSolver:  Solving for k, Initial residual = 2.23683e-05, Final residual = 9.16989e-06, No Iterations 2
ExecutionTime = 10.3097 s  ClockTime = 10 s

Time = 3992s

smoothSolver:  Solving for Ux, Initial residual = 3.25199e-06, Final residual = 3.25199e-06, No Iterations 0
smoothSolver:  Solving for Uy, Initial residual = 0.000115427, Final residual = 8.99325e-06, No Iterations 5
Pressure gradient source: uncorrected Ubar = 1, pressure gradient = 0.00372686
GAMG:  Solving for p, Initial residual = 2.8732e-05, Final residual = 2.66987e-06, No Iterations 5
time step continuity errors : sum local = 4.76148e-11, global = 2.10825e-19, cumulative = -6.25674e-16
Pressure gradient source: uncorrected Ubar = 1, pressure gradient = 0.00372681
smoothSolver:  Solving for omega, Initial residual = 5.74561e-06, Final residual = 5.74561e-06, No Iterations 0
smoothSolver:  Solving for k, Initial residual = 2.22287e-05, Final residual = 9.08746e-06, No Iterations 2
ExecutionTime = 10.3121 s  ClockTime = 10 s

Time = 3993s

smoothSolver:  Solving for Ux, Initial residual = 3.24568e-06, Final residual = 3.24568e-06, No Iterations 0
smoothSolver:  Solving for Uy, Initial residual = 0.000108735, Final residual = 9.6571e-06, No Iterations 5
Pressure gradient source: uncorrected Ubar = 1, pressure gradient = 0.00372681
GAMG:  Solving for p, Initial residual = 2.52886e-05, Final residual = 2.38318e-06, No Iterations 4
time step continuity errors : sum local = 4.33066e-11, global = -5.57508e-18, cumulative = -6.31249e-16
Pressure gradient source: uncorrected Ubar = 1, pressure gradient = 0.00372677
smoothSolver:  Solving for omega, Initial residual = 5.74548e-06, Final residual = 5.74548e-06, No Iterations 0
smoothSolver:  Solving for k, Initial residual = 2.21963e-05, Final residual = 9.07549e-06, No Iterations 2
ExecutionTime = 10.3145 s  ClockTime = 10 s

Time = 3994s

smoothSolver:  Solving for Ux, Initial residual = 3.23931e-06, Final residual = 3.23931e-06, No Iterations 0
smoothSolver:  Solving for Uy, Initial residual = 0.000113271, Final residual = 8.9181e-06, No Iterations 5
Pressure gradient source: uncorrected Ubar = 1, pressure gradient = 0.00372677
GAMG:  Solving for p, Initial residual = 2.79035e-05, Final residual = 2.56521e-06, No Iterations 5
time step continuity errors : sum local = 4.58844e-11, global = -4.19359e-18, cumulative = -6.35442e-16
Pressure gradient source: uncorrected Ubar = 1, pressure gradient = 0.00372673
smoothSolver:  Solving for omega, Initial residual = 5.74535e-06, Final residual = 5.74535e-06, No Iterations 0
smoothSolver:  Solving for k, Initial residual = 2.22484e-05, Final residual = 9.12263e-06, No Iterations 2
ExecutionTime = 10.317 s  ClockTime = 10 s

Time = 3995s

smoothSolver:  Solving for Ux, Initial residual = 3.23287e-06, Final residual = 3.23287e-06, No Iterations 0
smoothSolver:  Solving for Uy, Initial residual = 0.000117593, Final residual = 9.62803e-06, No Iterations 5
Pressure gradient source: uncorrected Ubar = 1, pressure gradient = 0.00372673
GAMG:  Solving for p, Initial residual = 2.9657e-05, Final residual = 2.03924e-06, No Iterations 4
time step continuity errors : sum local = 3.73401e-11, global = 1.01817e-17, cumulative = -6.25261e-16
Pressure gradient source: uncorrected Ubar = 1, pressure gradient = 0.00372668
smoothSolver:  Solving for omega, Initial residual = 5.74522e-06, Final residual = 5.74522e-06, No Iterations 0
smoothSolver:  Solving for k, Initial residual = 2.21078e-05, Final residual = 9.03548e-06, No Iterations 2
ExecutionTime = 10.3194 s  ClockTime = 10 s

Time = 3996s

smoothSolver:  Solving for Ux, Initial residual = 3.22635e-06, Final residual = 3.22635e-06, No Iterations 0
smoothSolver:  Solving for Uy, Initial residual = 0.00010819, Final residual = 8.83706e-06, No Iterations 5
Pressure gradient source: uncorrected Ubar = 1, pressure gradient = 0.00372668
GAMG:  Solving for p, Initial residual = 2.47835e-05, Final residual = 2.36679e-06, No Iterations 5
time step continuity errors : sum local = 4.24568e-11, global = 1.4005e-18, cumulative = -6.2386e-16
Pressure gradient source: uncorrected Ubar = 1, pressure gradient = 0.00372664
smoothSolver:  Solving for omega, Initial residual = 5.7451e-06, Final residual = 5.7451e-06, No Iterations 0
smoothSolver:  Solving for k, Initial residual = 2.20728e-05, Final residual = 9.02555e-06, No Iterations 2
ExecutionTime = 10.3218 s  ClockTime = 10 s

Time = 3997s

smoothSolver:  Solving for Ux, Initial residual = 3.21977e-06, Final residual = 3.21977e-06, No Iterations 0
smoothSolver:  Solving for Uy, Initial residual = 0.00011026, Final residual = 9.40097e-06, No Iterations 5
Pressure gradient source: uncorrected Ubar = 1, pressure gradient = 0.00372664
GAMG:  Solving for p, Initial residual = 2.7985e-05, Final residual = 1.90039e-06, No Iterations 4
time step continuity errors : sum local = 3.48128e-11, global = 1.82934e-18, cumulative = -6.22031e-16
Pressure gradient source: uncorrected Ubar = 1, pressure gradient = 0.0037266
smoothSolver:  Solving for omega, Initial residual = 5.74497e-06, Final residual = 5.74497e-06, No Iterations 0
smoothSolver:  Solving for k, Initial residual = 2.21273e-05, Final residual = 9.07004e-06, No Iterations 2
ExecutionTime = 10.3242 s  ClockTime = 10 s

Time = 3998s

smoothSolver:  Solving for Ux, Initial residual = 3.2133e-06, Final residual = 3.2133e-06, No Iterations 0
smoothSolver:  Solving for Uy, Initial residual = 0.000113731, Final residual = 8.81507e-06, No Iterations 5
Pressure gradient source: uncorrected Ubar = 1, pressure gradient = 0.0037266
GAMG:  Solving for p, Initial residual = 2.76535e-05, Final residual = 2.41483e-06, No Iterations 5
time step continuity errors : sum local = 4.30647e-11, global = 5.39307e-19, cumulative = -6.21492e-16
Pressure gradient source: uncorrected Ubar = 1, pressure gradient = 0.00372656
smoothSolver:  Solving for omega, Initial residual = 5.74484e-06, Final residual = 5.74484e-06, No Iterations 0
smoothSolver:  Solving for k, Initial residual = 2.1986e-05, Final residual = 8.98704e-06, No Iterations 2
ExecutionTime = 10.3267 s  ClockTime = 10 s

Time = 3999s

smoothSolver:  Solving for Ux, Initial residual = 3.20718e-06, Final residual = 3.20718e-06, No Iterations 0
smoothSolver:  Solving for Uy, Initial residual = 0.000104246, Final residual = 9.20858e-06, No Iterations 5
Pressure gradient source: uncorrected Ubar = 1, pressure gradient = 0.00372656
GAMG:  Solving for p, Initial residual = 2.43287e-05, Final residual = 2.10316e-06, No Iterations 4
time step continuity errors : sum local = 3.84921e-11, global = 8.29482e-19, cumulative = -6.20662e-16
Pressure gradient source: uncorrected Ubar = 1, pressure gradient = 0.00372651
smoothSolver:  Solving for omega, Initial residual = 5.74471e-06, Final residual = 5.74471e-06, No Iterations 0
smoothSolver:  Solving for k, Initial residual = 2.19522e-05, Final residual = 8.97355e-06, No Iterations 2
ExecutionTime = 10.3292 s  ClockTime = 10 s

Time = 4000s

smoothSolver:  Solving for Ux, Initial residual = 3.20124e-06, Final residual = 3.20124e-06, No Iterations 0
smoothSolver:  Solving for Uy, Initial residual = 0.000110111, Final residual = 8.72006e-06, No Iterations 5
Pressure gradient source: uncorrected Ubar = 1, pressure gradient = 0.00372651
GAMG:  Solving for p, Initial residual = 2.70125e-05, Final residual = 2.38076e-06, No Iterations 5
time step continuity errors : sum local = 4.28654e-11, global = 1.27685e-19, cumulative = -6.20534e-16
Pressure gradient source: uncorrected Ubar = 1, pressure gradient = 0.00372647
smoothSolver:  Solving for omega, Initial residual = 5.74459e-06, Final residual = 5.74459e-06, No Iterations 0
smoothSolver:  Solving for k, Initial residual = 2.2003e-05, Final residual = 9.02045e-06, No Iterations 2
ExecutionTime = 10.3316 s  ClockTime = 10 s

Time = 4001s

smoothSolver:  Solving for Ux, Initial residual = 3.19538e-06, Final residual = 3.19538e-06, No Iterations 0
smoothSolver:  Solving for Uy, Initial residual = 0.000112714, Final residual = 9.1683e-06, No Iterations 5
Pressure gradient source: uncorrected Ubar = 1, pressure gradient = 0.00372647
GAMG:  Solving for p, Initial residual = 2.79533e-05, Final residual = 1.86166e-06, No Iterations 4
time step continuity errors : sum local = 3.46605e-11, global = -2.24008e-18, cumulative = -6.22774e-16
Pressure gradient source: uncorrected Ubar = 1, pressure gradient = 0.00372643
smoothSolver:  Solving for omega, Initial residual = 5.74446e-06, Final residual = 5.74446e-06, No Iterations 0
smoothSolver:  Solving for k, Initial residual = 2.18663e-05, Final residual = 8.93566e-06, No Iterations 2
ExecutionTime = 10.334 s  ClockTime = 10 s

Time = 4002s

smoothSolver:  Solving for Ux, Initial residual = 3.18947e-06, Final residual = 3.18947e-06, No Iterations 0
smoothSolver:  Solving for Uy, Initial residual = 0.000104172, Final residual = 8.6423e-06, No Iterations 5
Pressure gradient source: uncorrected Ubar = 1, pressure gradient = 0.00372643
GAMG:  Solving for p, Initial residual = 2.34771e-05, Final residual = 2.22583e-06, No Iterations 5
time step continuity errors : sum local = 4.04476e-11, global = -1.77441e-18, cumulative = -6.24549e-16
Pressure gradient source: uncorrected Ubar = 1, pressure gradient = 0.00372639
smoothSolver:  Solving for omega, Initial residual = 5.74433e-06, Final residual = 5.74433e-06, No Iterations 0
smoothSolver:  Solving for k, Initial residual = 2.18265e-05, Final residual = 8.92306e-06, No Iterations 2
ExecutionTime = 10.3365 s  ClockTime = 10 s

Time = 4003s

smoothSolver:  Solving for Ux, Initial residual = 3.18381e-06, Final residual = 3.18381e-06, No Iterations 0
smoothSolver:  Solving for Uy, Initial residual = 0.000106588, Final residual = 8.97519e-06, No Iterations 5
Pressure gradient source: uncorrected Ubar = 1, pressure gradient = 0.00372639
GAMG:  Solving for p, Initial residual = 2.69259e-05, Final residual = 1.7268e-06, No Iterations 4
time step continuity errors : sum local = 3.24338e-11, global = -7.96682e-19, cumulative = -6.25346e-16
Pressure gradient source: uncorrected Ubar = 1, pressure gradient = 0.00372634
smoothSolver:  Solving for omega, Initial residual = 5.74421e-06, Final residual = 5.74421e-06, No Iterations 0
smoothSolver:  Solving for k, Initial residual = 2.18828e-05, Final residual = 8.96858e-06, No Iterations 2
ExecutionTime = 10.3389 s  ClockTime = 10 s

Time = 4004s

smoothSolver:  Solving for Ux, Initial residual = 3.17915e-06, Final residual = 3.17915e-06, No Iterations 0
smoothSolver:  Solving for Uy, Initial residual = 0.000111113, Final residual = 8.64756e-06, No Iterations 5
Pressure gradient source: uncorrected Ubar = 1, pressure gradient = 0.00372634
GAMG:  Solving for p, Initial residual = 2.67028e-05, Final residual = 2.23716e-06, No Iterations 5
time step continuity errors : sum local = 4.05969e-11, global = 7.10676e-19, cumulative = -6.24635e-16
Pressure gradient source: uncorrected Ubar = 1, pressure gradient = 0.0037263
smoothSolver:  Solving for omega, Initial residual = 5.74408e-06, Final residual = 5.74408e-06, No Iterations 0
smoothSolver:  Solving for k, Initial residual = 2.17406e-05, Final residual = 8.8855e-06, No Iterations 2
ExecutionTime = 10.3413 s  ClockTime = 10 s

Time = 4005s

smoothSolver:  Solving for Ux, Initial residual = 3.17446e-06, Final residual = 3.17446e-06, No Iterations 0
smoothSolver:  Solving for Uy, Initial residual = 0.000101186, Final residual = 8.77656e-06, No Iterations 5
Pressure gradient source: uncorrected Ubar = 1, pressure gradient = 0.0037263
GAMG:  Solving for p, Initial residual = 2.32033e-05, Final residual = 1.92731e-06, No Iterations 4
time step continuity errors : sum local = 3.60215e-11, global = -1.70408e-18, cumulative = -6.26339e-16
Pressure gradient source: uncorrected Ubar = 1, pressure gradient = 0.00372626
smoothSolver:  Solving for omega, Initial residual = 5.74396e-06, Final residual = 5.74396e-06, No Iterations 0
smoothSolver:  Solving for k, Initial residual = 2.17059e-05, Final residual = 8.87097e-06, No Iterations 2
ExecutionTime = 10.3437 s  ClockTime = 10 s

Time = 4006s

smoothSolver:  Solving for Ux, Initial residual = 3.16971e-06, Final residual = 3.16971e-06, No Iterations 0
smoothSolver:  Solving for Uy, Initial residual = 0.000106504, Final residual = 8.52808e-06, No Iterations 5
Pressure gradient source: uncorrected Ubar = 1, pressure gradient = 0.00372626
GAMG:  Solving for p, Initial residual = 2.59623e-05, Final residual = 2.18335e-06, No Iterations 5
time step continuity errors : sum local = 4.00497e-11, global = 8.47026e-19, cumulative = -6.25492e-16
Pressure gradient source: uncorrected Ubar = 1, pressure gradient = 0.00372622
smoothSolver:  Solving for omega, Initial residual = 5.74384e-06, Final residual = 5.74384e-06, No Iterations 0
smoothSolver:  Solving for k, Initial residual = 2.17554e-05, Final residual = 8.91767e-06, No Iterations 2
ExecutionTime = 10.3462 s  ClockTime = 10 s

Time = 4007s

smoothSolver:  Solving for Ux, Initial residual = 3.1649e-06, Final residual = 3.1649e-06, No Iterations 0
smoothSolver:  Solving for Uy, Initial residual = 0.000109322, Final residual = 8.74422e-06, No Iterations 5
Pressure gradient source: uncorrected Ubar = 1, pressure gradient = 0.00372622
GAMG:  Solving for p, Initial residual = 2.66201e-05, Final residual = 1.70778e-06, No Iterations 4
time step continuity errors : sum local = 3.25383e-11, global = 1.70639e-18, cumulative = -6.23786e-16
Pressure gradient source: uncorrected Ubar = 1, pressure gradient = 0.00372618
smoothSolver:  Solving for omega, Initial residual = 5.74371e-06, Final residual = 5.74371e-06, No Iterations 0
smoothSolver:  Solving for k, Initial residual = 2.16208e-05, Final residual = 8.83391e-06, No Iterations 2
ExecutionTime = 10.3486 s  ClockTime = 10 s

Time = 4008s

smoothSolver:  Solving for Ux, Initial residual = 3.16015e-06, Final residual = 3.16015e-06, No Iterations 0
smoothSolver:  Solving for Uy, Initial residual = 0.000101086, Final residual = 8.4435e-06, No Iterations 5
Pressure gradient source: uncorrected Ubar = 1, pressure gradient = 0.00372618
GAMG:  Solving for p, Initial residual = 2.22207e-05, Final residual = 2.04272e-06, No Iterations 5
time step continuity errors : sum local = 3.78618e-11, global = -8.74369e-18, cumulative = -6.32529e-16
Pressure gradient source: uncorrected Ubar = 1, pressure gradient = 0.00372613
smoothSolver:  Solving for omega, Initial residual = 5.74359e-06, Final residual = 5.74359e-06, No Iterations 0
smoothSolver:  Solving for k, Initial residual = 2.15778e-05, Final residual = 8.81964e-06, No Iterations 2
ExecutionTime = 10.351 s  ClockTime = 10 s

Time = 4009s

smoothSolver:  Solving for Ux, Initial residual = 3.1556e-06, Final residual = 3.1556e-06, No Iterations 0
smoothSolver:  Solving for Uy, Initial residual = 0.00010392, Final residual = 8.56739e-06, No Iterations 5
Pressure gradient source: uncorrected Ubar = 1, pressure gradient = 0.00372613
GAMG:  Solving for p, Initial residual = 2.58671e-05, Final residual = 1.61313e-06, No Iterations 4
time step continuity errors : sum local = 3.09536e-11, global = 2.09469e-18, cumulative = -6.30435e-16
Pressure gradient source: uncorrected Ubar = 1, pressure gradient = 0.00372609
smoothSolver:  Solving for omega, Initial residual = 5.74347e-06, Final residual = 5.74347e-06, No Iterations 0
smoothSolver:  Solving for k, Initial residual = 2.16345e-05, Final residual = 8.86536e-06, No Iterations 2
ExecutionTime = 10.3535 s  ClockTime = 10 s

Time = 4010s

smoothSolver:  Solving for Ux, Initial residual = 3.15141e-06, Final residual = 3.15141e-06, No Iterations 0
smoothSolver:  Solving for Uy, Initial residual = 0.000108907, Final residual = 8.44879e-06, No Iterations 5
Pressure gradient source: uncorrected Ubar = 1, pressure gradient = 0.00372609
GAMG:  Solving for p, Initial residual = 2.56574e-05, Final residual = 2.04755e-06, No Iterations 5
time step continuity errors : sum local = 3.78784e-11, global = 3.79996e-18, cumulative = -6.26635e-16
Pressure gradient source: uncorrected Ubar = 1, pressure gradient = 0.00372605
smoothSolver:  Solving for omega, Initial residual = 5.74334e-06, Final residual = 5.74334e-06, No Iterations 0
smoothSolver:  Solving for k, Initial residual = 2.14929e-05, Final residual = 8.78307e-06, No Iterations 2
ExecutionTime = 10.3559 s  ClockTime = 10 s

Time = 4011s

smoothSolver:  Solving for Ux, Initial residual = 3.14735e-06, Final residual = 3.14735e-06, No Iterations 0
smoothSolver:  Solving for Uy, Initial residual = 9.87997e-05, Final residual = 8.35444e-06, No Iterations 5
Pressure gradient source: uncorrected Ubar = 1, pressure gradient = 0.00372605
GAMG:  Solving for p, Initial residual = 2.20197e-05, Final residual = 1.81424e-06, No Iterations 4
time step continuity errors : sum local = 3.44531e-11, global = 3.32539e-18, cumulative = -6.23309e-16
Pressure gradient source: uncorrected Ubar = 1, pressure gradient = 0.00372601
smoothSolver:  Solving for omega, Initial residual = 5.74322e-06, Final residual = 5.74322e-06, No Iterations 0
smoothSolver:  Solving for k, Initial residual = 2.14562e-05, Final residual = 8.76685e-06, No Iterations 2
ExecutionTime = 10.3583 s  ClockTime = 10 s


SIMPLE solution converged in 4011 iterations

End

