/*---------------------------------------------------------------------------*\
  =========                 |
  \\      /  F ield         | OpenFOAM: The Open Source CFD Toolbox
   \\    /   O peration     | Website:  https://openfoam.org
    \\  /    A nd           | Version:  10
     \\/     M anipulation  |
\*---------------------------------------------------------------------------*/
Build  : 10-e450dce21ea5
Exec   : blockMesh
Date   : Feb 20 2023
Time   : 14:12:13
Host   : "w530-R9YK46P"
PID    : 18645
I/O    : uncollated
Case   : /home/jdmezazeron/gitDanielMezaZ/turbulenceVisualized/Data/SimulationFiles/K21_Re1077
nProcs : 1
sigFpe : Enabling floating point exception trapping (FOAM_SIGFPE).
fileModificationChecking : Monitoring run-time modified files using timeStampMaster (fileModificationSkew 10)
allowSystemOperations : Allowing user-supplied system call operations

// * * * * * * * * * * * * * * * * * * * * * * * * * * * * * * * * * * * * * //
Create time

Deleting polyMesh directory
    "/home/jdmezazeron/gitDanielMezaZ/turbulenceVisualized/Data/SimulationFiles/K21_Re1077/constant/polyMesh"
Reading "blockMeshDict"

Creating block mesh from
    "system/blockMeshDict"
Creating block edges
No non-planar block faces defined
Creating topology blocks
Creating topology patches

Creating block mesh topology

Check topology

	Basic statistics
		Number of internal faces : 0
		Number of boundary faces : 6
		Number of defined boundary faces : 6
		Number of undefined boundary faces : 0
	Checking patch -> block consistency

Creating block offsets
Creating merge list .

Creating polyMesh from blockMesh
Creating patches
Creating cells
Creating points with scale 1
    Block 0 cell size :
        i : 0.5
        j : 0.00461374 .. 0.018455
        k : 2

Detected cyclic patches; ordering boundary faces

Writing polyMesh
----------------
Mesh Information
----------------
  boundingBox: (-1 0 -1) (1 1 1)
  nPoints: 1010
  nCells: 400
  nFaces: 1704
  nInternalFaces: 696
----------------
Patches
----------------
  patch 0 (start: 696 size: 100) name: inlet
  patch 1 (start: 796 size: 100) name: outlet
  patch 2 (start: 896 size: 4) name: fixedWalls-bottom
  patch 3 (start: 900 size: 4) name: fixedWalls-top
  patch 4 (start: 904 size: 800) name: frontAndBack

End

/*---------------------------------------------------------------------------*\
  =========                 |
  \\      /  F ield         | OpenFOAM: The Open Source CFD Toolbox
   \\    /   O peration     | Website:  https://openfoam.org
    \\  /    A nd           | Version:  10
     \\/     M anipulation  |
\*---------------------------------------------------------------------------*/
Build  : 10-e450dce21ea5
Exec   : simpleFoam
Date   : Feb 20 2023
Time   : 14:12:13
Host   : "w530-R9YK46P"
PID    : 18646
I/O    : uncollated
Case   : /home/jdmezazeron/gitDanielMezaZ/turbulenceVisualized/Data/SimulationFiles/K21_Re1077
nProcs : 1
sigFpe : Enabling floating point exception trapping (FOAM_SIGFPE).
fileModificationChecking : Monitoring run-time modified files using timeStampMaster (fileModificationSkew 10)
allowSystemOperations : Allowing user-supplied system call operations

// * * * * * * * * * * * * * * * * * * * * * * * * * * * * * * * * * * * * * //
Create time

Create mesh for time = 0


SIMPLE: Convergence criteria found
        U: tolerance 0.0001
        p: tolerance 0.01
        omega: tolerance 0.0001

Reading field p

Reading field U

Reading/calculating face flux field phi

Selecting viscosity model Newtonian
Selecting turbulence model type RAS
Selecting RAS turbulence model kOmegaSST
Selecting patchDistMethod meshWave
RAS
{
    RASModel        kOmegaSST;
    turbulence      on;
    printCoeffs     on;
    alphaK1         0.85;
    alphaK2         1;
    alphaOmega1     0.5;
    alphaOmega2     0.856;
    gamma1          0.555556;
    gamma2          0.44;
    beta1           0.075;
    beta2           0.0828;
    betaStar        0.09;
    a1              0.31;
    b1              1;
    c1              10;
    F3              false;
}

No MRF models present

--> FOAM Warning : Creating fvModels from "system/fvOptions" rather than constant/fvModels
No fvModels present
--> FOAM Warning : Creating fvConstraints from "system/fvOptions"

Selecting finite volume constraint type meanVelocityForce
    Name: momentumSource
    - selecting all cells
    - selected 400 cell(s) with volume 4
    Initial pressure gradient = 0


Starting time loop

turbulenceFields stressComponents: storing fields:
    R

Time = 1s

smoothSolver:  Solving for Ux, Initial residual = 0, Final residual = 0, No Iterations 0
smoothSolver:  Solving for Uy, Initial residual = 0, Final residual = 0, No Iterations 0
Pressure gradient source: uncorrected Ubar = 0, pressure gradient = 1377.77
GAMG:  Solving for p, Initial residual = 0.999997, Final residual = 0.0734077, No Iterations 3
time step continuity errors : sum local = 1.05358e-16, global = -3.7662e-18, cumulative = -3.7662e-18
Pressure gradient source: uncorrected Ubar = 0.884652, pressure gradient = 158.923
smoothSolver:  Solving for omega, Initial residual = 0.179589, Final residual = 0.0108512, No Iterations 3
smoothSolver:  Solving for k, Initial residual = 1, Final residual = 0.0392411, No Iterations 2
ExecutionTime = 0.014133 s  ClockTime = 0 s

Time = 2s

smoothSolver:  Solving for Ux, Initial residual = 0.986303, Final residual = 0.0883998, No Iterations 6
smoothSolver:  Solving for Uy, Initial residual = 1, Final residual = 0.0902016, No Iterations 5
Pressure gradient source: uncorrected Ubar = 31.9659, pressure gradient = -1186.67
GAMG:  Solving for p, Initial residual = 1, Final residual = 0.090151, No Iterations 6
time step continuity errors : sum local = 0.0228881, global = -4.17418e-17, cumulative = -4.5508e-17
Pressure gradient source: uncorrected Ubar = 4.96381, pressure gradient = -13.3211
smoothSolver:  Solving for omega, Initial residual = 0.196516, Final residual = 0.000861567, No Iterations 1
smoothSolver:  Solving for k, Initial residual = 0.979269, Final residual = 0.0181156, No Iterations 1
ExecutionTime = 0.016975 s  ClockTime = 0 s

Time = 3s

smoothSolver:  Solving for Ux, Initial residual = 0.479307, Final residual = 0.0393636, No Iterations 6
smoothSolver:  Solving for Uy, Initial residual = 0.480113, Final residual = 0.0218544, No Iterations 3
Pressure gradient source: uncorrected Ubar = -0.957011, pressure gradient = 98.7965
GAMG:  Solving for p, Initial residual = 0.195223, Final residual = 0.0127348, No Iterations 6
time step continuity errors : sum local = 0.00672211, global = -1.92446e-17, cumulative = -6.47526e-17
Pressure gradient source: uncorrected Ubar = 0.757644, pressure gradient = 0.563547
smoothSolver:  Solving for omega, Initial residual = 0.00932951, Final residual = 0.000207743, No Iterations 1
smoothSolver:  Solving for k, Initial residual = 0.326695, Final residual = 0.0171744, No Iterations 2
ExecutionTime = 0.019561 s  ClockTime = 0 s

Time = 4s

smoothSolver:  Solving for Ux, Initial residual = 0.0740458, Final residual = 0.00583461, No Iterations 4
smoothSolver:  Solving for Uy, Initial residual = 0.224687, Final residual = 0.0189764, No Iterations 3
Pressure gradient source: uncorrected Ubar = 1.00462, pressure gradient = 0.35335
GAMG:  Solving for p, Initial residual = 0.124417, Final residual = 0.0112713, No Iterations 13
time step continuity errors : sum local = 0.00831616, global = -3.67545e-17, cumulative = -1.01507e-16
Pressure gradient source: uncorrected Ubar = 0.999973, pressure gradient = 0.564786
smoothSolver:  Solving for omega, Initial residual = 0.00793609, Final residual = 0.000163156, No Iterations 1
smoothSolver:  Solving for k, Initial residual = 0.282897, Final residual = 0.0198435, No Iterations 3
ExecutionTime = 0.022476 s  ClockTime = 0 s

Time = 5s

smoothSolver:  Solving for Ux, Initial residual = 0.0599902, Final residual = 0.0055438, No Iterations 4
smoothSolver:  Solving for Uy, Initial residual = 0.236836, Final residual = 0.0199577, No Iterations 3
Pressure gradient source: uncorrected Ubar = 0.987042, pressure gradient = 1.24013
GAMG:  Solving for p, Initial residual = 0.144226, Final residual = 0.0134569, No Iterations 9
time step continuity errors : sum local = 0.0091116, global = -2.70373e-18, cumulative = -1.04211e-16
Pressure gradient source: uncorrected Ubar = 0.99731, pressure gradient = 0.704994
smoothSolver:  Solving for omega, Initial residual = 0.0034183, Final residual = 0.000159596, No Iterations 1
smoothSolver:  Solving for k, Initial residual = 0.525907, Final residual = 0.0290893, No Iterations 3
ExecutionTime = 0.025119 s  ClockTime = 0 s

Time = 6s

smoothSolver:  Solving for Ux, Initial residual = 0.052684, Final residual = 0.00472378, No Iterations 4
smoothSolver:  Solving for Uy, Initial residual = 0.457592, Final residual = 0.0409139, No Iterations 3
Pressure gradient source: uncorrected Ubar = 0.967191, pressure gradient = 2.69595
GAMG:  Solving for p, Initial residual = 0.161366, Final residual = 0.0148062, No Iterations 7
time step continuity errors : sum local = 0.00725663, global = 4.99411e-18, cumulative = -9.92166e-17
Pressure gradient source: uncorrected Ubar = 0.994763, pressure gradient = 1.0228
smoothSolver:  Solving for omega, Initial residual = 0.00263574, Final residual = 0.000128958, No Iterations 2
smoothSolver:  Solving for k, Initial residual = 0.462584, Final residual = 0.025369, No Iterations 3
ExecutionTime = 0.027746 s  ClockTime = 0 s

Time = 7s

smoothSolver:  Solving for Ux, Initial residual = 0.0453378, Final residual = 0.00401098, No Iterations 4
smoothSolver:  Solving for Uy, Initial residual = 0.53123, Final residual = 0.0459651, No Iterations 3
Pressure gradient source: uncorrected Ubar = 0.973172, pressure gradient = 2.79738
GAMG:  Solving for p, Initial residual = 0.278634, Final residual = 0.0235349, No Iterations 10
time step continuity errors : sum local = 0.00745031, global = 1.07336e-17, cumulative = -8.8483e-17
Pressure gradient source: uncorrected Ubar = 0.995965, pressure gradient = 1.28969
smoothSolver:  Solving for omega, Initial residual = 0.00165877, Final residual = 8.13507e-05, No Iterations 2
smoothSolver:  Solving for k, Initial residual = 0.21694, Final residual = 0.0203056, No Iterations 3
ExecutionTime = 0.030452 s  ClockTime = 0 s

Time = 8s

smoothSolver:  Solving for Ux, Initial residual = 0.0401746, Final residual = 0.00369227, No Iterations 4
smoothSolver:  Solving for Uy, Initial residual = 0.484345, Final residual = 0.0366185, No Iterations 3
Pressure gradient source: uncorrected Ubar = 1.00509, pressure gradient = 0.922326
GAMG:  Solving for p, Initial residual = 0.161544, Final residual = 0.0143613, No Iterations 10
time step continuity errors : sum local = 0.00522895, global = 1.37694e-17, cumulative = -7.47137e-17
Pressure gradient source: uncorrected Ubar = 1.00045, pressure gradient = 1.25746
smoothSolver:  Solving for omega, Initial residual = 0.000986407, Final residual = 5.84281e-05, No Iterations 2
smoothSolver:  Solving for k, Initial residual = 0.106294, Final residual = 0.00584357, No Iterations 4
ExecutionTime = 0.033174 s  ClockTime = 0 s

Time = 9s

smoothSolver:  Solving for Ux, Initial residual = 0.0352391, Final residual = 0.00326372, No Iterations 4
smoothSolver:  Solving for Uy, Initial residual = 0.454985, Final residual = 0.0397382, No Iterations 3
Pressure gradient source: uncorrected Ubar = 1.00046, pressure gradient = 1.2207
GAMG:  Solving for p, Initial residual = 0.136442, Final residual = 0.0107124, No Iterations 6
time step continuity errors : sum local = 0.00404257, global = 1.24683e-18, cumulative = -7.34668e-17
Pressure gradient source: uncorrected Ubar = 0.999954, pressure gradient = 1.26112
smoothSolver:  Solving for omega, Initial residual = 0.000622729, Final residual = 3.41975e-05, No Iterations 3
smoothSolver:  Solving for k, Initial residual = 0.0795596, Final residual = 0.00600663, No Iterations 4
ExecutionTime = 0.035775 s  ClockTime = 0 s

Time = 10s

smoothSolver:  Solving for Ux, Initial residual = 0.0300408, Final residual = 0.00284198, No Iterations 4
smoothSolver:  Solving for Uy, Initial residual = 0.353386, Final residual = 0.0221431, No Iterations 4
Pressure gradient source: uncorrected Ubar = 0.996964, pressure gradient = 1.52902
GAMG:  Solving for p, Initial residual = 0.13179, Final residual = 0.0124803, No Iterations 7
time step continuity errors : sum local = 0.00322257, global = 7.12863e-18, cumulative = -6.63382e-17
Pressure gradient source: uncorrected Ubar = 0.999513, pressure gradient = 1.30409
smoothSolver:  Solving for omega, Initial residual = 0.000466487, Final residual = 3.73046e-05, No Iterations 3
smoothSolver:  Solving for k, Initial residual = 0.0640625, Final residual = 0.00607585, No Iterations 4
ExecutionTime = 0.038399 s  ClockTime = 0 s

Time = 11s

smoothSolver:  Solving for Ux, Initial residual = 0.0262166, Final residual = 0.00254081, No Iterations 4
smoothSolver:  Solving for Uy, Initial residual = 0.242796, Final residual = 0.0158228, No Iterations 4
Pressure gradient source: uncorrected Ubar = 0.998008, pressure gradient = 1.50253
GAMG:  Solving for p, Initial residual = 0.170326, Final residual = 0.0161688, No Iterations 4
time step continuity errors : sum local = 0.00324219, global = -1.23599e-17, cumulative = -7.86981e-17
Pressure gradient source: uncorrected Ubar = 0.999604, pressure gradient = 1.34353
smoothSolver:  Solving for omega, Initial residual = 0.000336017, Final residual = 2.25486e-05, No Iterations 4
smoothSolver:  Solving for k, Initial residual = 0.0532441, Final residual = 0.0034726, No Iterations 5
ExecutionTime = 0.040893 s  ClockTime = 0 s

Time = 12s

smoothSolver:  Solving for Ux, Initial residual = 0.0234239, Final residual = 0.00232308, No Iterations 4
smoothSolver:  Solving for Uy, Initial residual = 0.184558, Final residual = 0.0116164, No Iterations 4
Pressure gradient source: uncorrected Ubar = 0.999461, pressure gradient = 1.40323
GAMG:  Solving for p, Initial residual = 0.161891, Final residual = 0.0146652, No Iterations 9
time step continuity errors : sum local = 0.00286424, global = 5.35325e-17, cumulative = -2.51656e-17
Pressure gradient source: uncorrected Ubar = 0.999752, pressure gradient = 1.37101
smoothSolver:  Solving for omega, Initial residual = 0.000265783, Final residual = 2.16114e-05, No Iterations 4
smoothSolver:  Solving for k, Initial residual = 0.0451391, Final residual = 0.00335632, No Iterations 5
ExecutionTime = 0.043614 s  ClockTime = 0 s

Time = 13s

smoothSolver:  Solving for Ux, Initial residual = 0.0213283, Final residual = 0.00137802, No Iterations 5
smoothSolver:  Solving for Uy, Initial residual = 0.125271, Final residual = 0.0097213, No Iterations 4
Pressure gradient source: uncorrected Ubar = 1.00082, pressure gradient = 1.27008
GAMG:  Solving for p, Initial residual = 0.186927, Final residual = 0.0169302, No Iterations 9
time step continuity errors : sum local = 0.00242178, global = 4.14729e-18, cumulative = -2.10184e-17
Pressure gradient source: uncorrected Ubar = 0.999986, pressure gradient = 1.37267
smoothSolver:  Solving for omega, Initial residual = 0.000227273, Final residual = 2.26948e-05, No Iterations 4
smoothSolver:  Solving for k, Initial residual = 0.0375811, Final residual = 0.00300876, No Iterations 5
ExecutionTime = 0.046417 s  ClockTime = 0 s

Time = 14s

smoothSolver:  Solving for Ux, Initial residual = 0.0195656, Final residual = 0.00128558, No Iterations 5
smoothSolver:  Solving for Uy, Initial residual = 0.12342, Final residual = 0.00968933, No Iterations 4
Pressure gradient source: uncorrected Ubar = 1.0014, pressure gradient = 1.1843
GAMG:  Solving for p, Initial residual = 0.186202, Final residual = 0.0156743, No Iterations 9
time step continuity errors : sum local = 0.00170103, global = 1.75099e-17, cumulative = -3.50849e-18
Pressure gradient source: uncorrected Ubar = 1.00006, pressure gradient = 1.36503
smoothSolver:  Solving for omega, Initial residual = 0.000196636, Final residual = 1.37869e-05, No Iterations 5
smoothSolver:  Solving for k, Initial residual = 0.0319729, Final residual = 0.00275573, No Iterations 5
ExecutionTime = 0.049157 s  ClockTime = 0 s

Time = 15s

smoothSolver:  Solving for Ux, Initial residual = 0.0181212, Final residual = 0.00120713, No Iterations 5
smoothSolver:  Solving for Uy, Initial residual = 0.122406, Final residual = 0.0109409, No Iterations 4
Pressure gradient source: uncorrected Ubar = 1.00173, pressure gradient = 1.11255
GAMG:  Solving for p, Initial residual = 0.14235, Final residual = 0.0126029, No Iterations 9
time step continuity errors : sum local = 0.0012707, global = 2.35539e-17, cumulative = 2.00454e-17
Pressure gradient source: uncorrected Ubar = 1.00009, pressure gradient = 1.35137
smoothSolver:  Solving for omega, Initial residual = 0.000178509, Final residual = 1.37233e-05, No Iterations 5
smoothSolver:  Solving for k, Initial residual = 0.0277162, Final residual = 0.0025106, No Iterations 5
ExecutionTime = 0.0519 s  ClockTime = 0 s

Time = 16s

smoothSolver:  Solving for Ux, Initial residual = 0.0169039, Final residual = 0.00114501, No Iterations 5
smoothSolver:  Solving for Uy, Initial residual = 0.112828, Final residual = 0.00711173, No Iterations 5
Pressure gradient source: uncorrected Ubar = 1.0017, pressure gradient = 1.08424
GAMG:  Solving for p, Initial residual = 0.119015, Final residual = 0.0118879, No Iterations 10
time step continuity errors : sum local = 0.0011839, global = -2.87988e-17, cumulative = -8.75342e-18
Pressure gradient source: uncorrected Ubar = 1.0001, pressure gradient = 1.33611
smoothSolver:  Solving for omega, Initial residual = 0.00016021, Final residual = 1.35055e-05, No Iterations 5
smoothSolver:  Solving for k, Initial residual = 0.0240906, Final residual = 0.00226056, No Iterations 5
ExecutionTime = 0.054717 s  ClockTime = 0 s

Time = 17s

smoothSolver:  Solving for Ux, Initial residual = 0.0158964, Final residual = 0.001091, No Iterations 5
smoothSolver:  Solving for Uy, Initial residual = 0.106179, Final residual = 0.00702186, No Iterations 5
Pressure gradient source: uncorrected Ubar = 1.00179, pressure gradient = 1.03534
GAMG:  Solving for p, Initial residual = 0.0822336, Final residual = 0.00814397, No Iterations 12
time step continuity errors : sum local = 0.00106268, global = -2.09794e-17, cumulative = -2.97328e-17
Pressure gradient source: uncorrected Ubar = 1.00011, pressure gradient = 1.31721
smoothSolver:  Solving for omega, Initial residual = 0.000148213, Final residual = 1.30576e-05, No Iterations 5
smoothSolver:  Solving for k, Initial residual = 0.0211338, Final residual = 0.00205775, No Iterations 5
ExecutionTime = 0.057633 s  ClockTime = 0 s

Time = 18s

smoothSolver:  Solving for Ux, Initial residual = 0.0149709, Final residual = 0.00104299, No Iterations 5
smoothSolver:  Solving for Uy, Initial residual = 0.0982502, Final residual = 0.00692042, No Iterations 5
Pressure gradient source: uncorrected Ubar = 1.00186, pressure gradient = 0.982359
GAMG:  Solving for p, Initial residual = 0.0561739, Final residual = 0.00545753, No Iterations 11
time step continuity errors : sum local = 0.000888862, global = -6.07153e-18, cumulative = -3.58043e-17
Pressure gradient source: uncorrected Ubar = 1.00013, pressure gradient = 1.29443
smoothSolver:  Solving for omega, Initial residual = 0.000138194, Final residual = 1.3527e-05, No Iterations 5
smoothSolver:  Solving for k, Initial residual = 0.0186741, Final residual = 0.00185739, No Iterations 5
ExecutionTime = 0.060475 s  ClockTime = 0 s

Time = 19s

smoothSolver:  Solving for Ux, Initial residual = 0.0141977, Final residual = 0.00100123, No Iterations 5
smoothSolver:  Solving for Uy, Initial residual = 0.0843928, Final residual = 0.00642904, No Iterations 5
Pressure gradient source: uncorrected Ubar = 1.00163, pressure gradient = 0.983222
GAMG:  Solving for p, Initial residual = 0.0391425, Final residual = 0.00338021, No Iterations 15
time step continuity errors : sum local = 0.000622605, global = -2.36153e-18, cumulative = -3.81658e-17
Pressure gradient source: uncorrected Ubar = 1.0001, pressure gradient = 1.27462
smoothSolver:  Solving for omega, Initial residual = 0.000131082, Final residual = 1.25505e-05, No Iterations 5
smoothSolver:  Solving for k, Initial residual = 0.0165953, Final residual = 0.00107887, No Iterations 6
ExecutionTime = 0.0635 s  ClockTime = 0 s

Time = 20s

smoothSolver:  Solving for Ux, Initial residual = 0.0135001, Final residual = 0.000963367, No Iterations 5
smoothSolver:  Solving for Uy, Initial residual = 0.0699839, Final residual = 0.00599627, No Iterations 5
Pressure gradient source: uncorrected Ubar = 1.00183, pressure gradient = 0.904334
GAMG:  Solving for p, Initial residual = 0.0297202, Final residual = 0.00294105, No Iterations 10
time step continuity errors : sum local = 0.000577959, global = 7.88079e-18, cumulative = -3.02851e-17
Pressure gradient source: uncorrected Ubar = 1.00013, pressure gradient = 1.24787
smoothSolver:  Solving for omega, Initial residual = 0.000125116, Final residual = 8.14679e-06, No Iterations 6
smoothSolver:  Solving for k, Initial residual = 0.0149595, Final residual = 0.000985556, No Iterations 6
ExecutionTime = 0.066378 s  ClockTime = 0 s

Time = 21s

smoothSolver:  Solving for Ux, Initial residual = 0.0128782, Final residual = 0.00093087, No Iterations 5
smoothSolver:  Solving for Uy, Initial residual = 0.0632076, Final residual = 0.00558738, No Iterations 5
Pressure gradient source: uncorrected Ubar = 1.00167, pressure gradient = 0.891881
GAMG:  Solving for p, Initial residual = 0.0225146, Final residual = 0.00196439, No Iterations 11
time step continuity errors : sum local = 0.000363186, global = 2.38694e-17, cumulative = -6.41567e-18
Pressure gradient source: uncorrected Ubar = 1.00012, pressure gradient = 1.22302
smoothSolver:  Solving for omega, Initial residual = 0.000121067, Final residual = 7.93566e-06, No Iterations 6
smoothSolver:  Solving for k, Initial residual = 0.0137102, Final residual = 0.000914125, No Iterations 6
ExecutionTime = 0.069229 s  ClockTime = 0 s

Time = 22s

smoothSolver:  Solving for Ux, Initial residual = 0.0123392, Final residual = 0.000900524, No Iterations 5
smoothSolver:  Solving for Uy, Initial residual = 0.0583334, Final residual = 0.00521217, No Iterations 5
Pressure gradient source: uncorrected Ubar = 1.00159, pressure gradient = 0.865505
GAMG:  Solving for p, Initial residual = 0.0180289, Final residual = 0.00140368, No Iterations 10
time step continuity errors : sum local = 0.000246139, global = 1.63986e-17, cumulative = 9.98288e-18
Pressure gradient source: uncorrected Ubar = 1.00011, pressure gradient = 1.19808
smoothSolver:  Solving for omega, Initial residual = 0.000112759, Final residual = 7.69906e-06, No Iterations 6
smoothSolver:  Solving for k, Initial residual = 0.0127309, Final residual = 0.000841485, No Iterations 6
ExecutionTime = 0.072224 s  ClockTime = 0 s

Time = 23s

smoothSolver:  Solving for Ux, Initial residual = 0.0118354, Final residual = 0.000873347, No Iterations 5
smoothSolver:  Solving for Uy, Initial residual = 0.0515355, Final residual = 0.00468496, No Iterations 5
Pressure gradient source: uncorrected Ubar = 1.00151, pressure gradient = 0.844338
GAMG:  Solving for p, Initial residual = 0.0141483, Final residual = 0.0011417, No Iterations 8
time step continuity errors : sum local = 0.000172009, global = 8.63947e-19, cumulative = 1.08468e-17
Pressure gradient source: uncorrected Ubar = 1.0001, pressure gradient = 1.17385
smoothSolver:  Solving for omega, Initial residual = 0.000109324, Final residual = 7.39683e-06, No Iterations 6
smoothSolver:  Solving for k, Initial residual = 0.0119671, Final residual = 0.000785452, No Iterations 6
ExecutionTime = 0.074979 s  ClockTime = 0 s

Time = 24s

smoothSolver:  Solving for Ux, Initial residual = 0.0113933, Final residual = 0.000849372, No Iterations 5
smoothSolver:  Solving for Uy, Initial residual = 0.0442438, Final residual = 0.00418315, No Iterations 5
Pressure gradient source: uncorrected Ubar = 1.00144, pressure gradient = 0.819652
GAMG:  Solving for p, Initial residual = 0.0113868, Final residual = 0.000871837, No Iterations 8
time step continuity errors : sum local = 0.000103459, global = -2.61581e-17, cumulative = -1.53112e-17
Pressure gradient source: uncorrected Ubar = 1.0001, pressure gradient = 1.14964
smoothSolver:  Solving for omega, Initial residual = 0.000105074, Final residual = 7.66534e-06, No Iterations 6
smoothSolver:  Solving for k, Initial residual = 0.0112671, Final residual = 0.000740971, No Iterations 6
ExecutionTime = 0.077706 s  ClockTime = 0 s

Time = 25s

smoothSolver:  Solving for Ux, Initial residual = 0.010986, Final residual = 0.000825393, No Iterations 5
smoothSolver:  Solving for Uy, Initial residual = 0.0410007, Final residual = 0.00397204, No Iterations 5
Pressure gradient source: uncorrected Ubar = 1.0013, pressure gradient = 0.817151
GAMG:  Solving for p, Initial residual = 0.00998369, Final residual = 0.000898283, No Iterations 8
time step continuity errors : sum local = 9.14195e-05, global = 2.96072e-17, cumulative = 1.4296e-17
Pressure gradient source: uncorrected Ubar = 1.00008, pressure gradient = 1.1281
smoothSolver:  Solving for omega, Initial residual = 0.000101453, Final residual = 7.31709e-06, No Iterations 6
smoothSolver:  Solving for k, Initial residual = 0.0106412, Final residual = 0.000708702, No Iterations 6
ExecutionTime = 0.080435 s  ClockTime = 0 s

Time = 26s

smoothSolver:  Solving for Ux, Initial residual = 0.0106023, Final residual = 0.000803807, No Iterations 5
smoothSolver:  Solving for Uy, Initial residual = 0.0389646, Final residual = 0.00384231, No Iterations 5
Pressure gradient source: uncorrected Ubar = 1.00123, pressure gradient = 0.802174
GAMG:  Solving for p, Initial residual = 0.00990726, Final residual = 0.000927141, No Iterations 8
time step continuity errors : sum local = 9.27295e-05, global = 1.09166e-17, cumulative = 2.52125e-17
Pressure gradient source: uncorrected Ubar = 1.00008, pressure gradient = 1.10744
smoothSolver:  Solving for omega, Initial residual = 9.85356e-05, Final residual = 7.22047e-06, No Iterations 6
smoothSolver:  Solving for k, Initial residual = 0.0101121, Final residual = 0.000679852, No Iterations 6
ExecutionTime = 0.083169 s  ClockTime = 0 s

Time = 27s

smoothSolver:  Solving for Ux, Initial residual = 0.0102568, Final residual = 0.000784551, No Iterations 5
smoothSolver:  Solving for Uy, Initial residual = 0.0378709, Final residual = 0.00378527, No Iterations 5
Pressure gradient source: uncorrected Ubar = 1.00113, pressure gradient = 0.794764
GAMG:  Solving for p, Initial residual = 0.00952622, Final residual = 0.000817137, No Iterations 8
time step continuity errors : sum local = 7.19403e-05, global = 1.82788e-18, cumulative = 2.70404e-17
Pressure gradient source: uncorrected Ubar = 1.00007, pressure gradient = 1.08845
smoothSolver:  Solving for omega, Initial residual = 9.57665e-05, Final residual = 7.20192e-06, No Iterations 6
smoothSolver:  Solving for k, Initial residual = 0.00962455, Final residual = 0.000653076, No Iterations 6
ExecutionTime = 0.085971 s  ClockTime = 0 s

Time = 28s

smoothSolver:  Solving for Ux, Initial residual = 0.00994502, Final residual = 0.000764975, No Iterations 5
smoothSolver:  Solving for Uy, Initial residual = 0.0364764, Final residual = 0.00238875, No Iterations 6
Pressure gradient source: uncorrected Ubar = 1.00105, pressure gradient = 0.789723
GAMG:  Solving for p, Initial residual = 0.00918237, Final residual = 0.000814654, No Iterations 8
time step continuity errors : sum local = 7.22878e-05, global = 1.68357e-17, cumulative = 4.38761e-17
Pressure gradient source: uncorrected Ubar = 1.00006, pressure gradient = 1.07118
smoothSolver:  Solving for omega, Initial residual = 9.34648e-05, Final residual = 6.88625e-06, No Iterations 6
smoothSolver:  Solving for k, Initial residual = 0.00926066, Final residual = 0.000639413, No Iterations 6
ExecutionTime = 0.0887 s  ClockTime = 0 s

Time = 29s

smoothSolver:  Solving for Ux, Initial residual = 0.00966072, Final residual = 0.000740273, No Iterations 5
smoothSolver:  Solving for Uy, Initial residual = 0.0340988, Final residual = 0.00225646, No Iterations 6
Pressure gradient source: uncorrected Ubar = 1.00093, pressure gradient = 0.797503
GAMG:  Solving for p, Initial residual = 0.00876205, Final residual = 0.000844709, No Iterations 8
time step continuity errors : sum local = 8.07573e-05, global = -9.7646e-18, cumulative = 3.41115e-17
Pressure gradient source: uncorrected Ubar = 1.00005, pressure gradient = 1.05695
smoothSolver:  Solving for omega, Initial residual = 9.08577e-05, Final residual = 6.79059e-06, No Iterations 6
smoothSolver:  Solving for k, Initial residual = 0.00883733, Final residual = 0.000611142, No Iterations 6
ExecutionTime = 0.091474 s  ClockTime = 0 s

Time = 30s

smoothSolver:  Solving for Ux, Initial residual = 0.00932198, Final residual = 0.00071498, No Iterations 5
smoothSolver:  Solving for Uy, Initial residual = 0.0309303, Final residual = 0.00208324, No Iterations 6
Pressure gradient source: uncorrected Ubar = 1.00083, pressure gradient = 0.802527
GAMG:  Solving for p, Initial residual = 0.00716193, Final residual = 0.000566408, No Iterations 10
time step continuity errors : sum local = 5.94254e-05, global = -1.85331e-17, cumulative = 1.55784e-17
Pressure gradient source: uncorrected Ubar = 1.00004, pressure gradient = 1.045
smoothSolver:  Solving for omega, Initial residual = 8.85091e-05, Final residual = 6.72486e-06, No Iterations 6
smoothSolver:  Solving for k, Initial residual = 0.00845742, Final residual = 0.000591091, No Iterations 6
ExecutionTime = 0.094294 s  ClockTime = 0 s

Time = 31s

smoothSolver:  Solving for Ux, Initial residual = 0.00900157, Final residual = 0.000691329, No Iterations 5
smoothSolver:  Solving for Uy, Initial residual = 0.0283879, Final residual = 0.00192447, No Iterations 6
Pressure gradient source: uncorrected Ubar = 1.00078, pressure gradient = 0.797863
GAMG:  Solving for p, Initial residual = 0.00669955, Final residual = 0.00051554, No Iterations 11
time step continuity errors : sum local = 5.33222e-05, global = -1.11758e-17, cumulative = 4.40267e-18
Pressure gradient source: uncorrected Ubar = 1.00004, pressure gradient = 1.03381
smoothSolver:  Solving for omega, Initial residual = 8.61077e-05, Final residual = 9.91523e-06, No Iterations 5
smoothSolver:  Solving for k, Initial residual = 0.00818706, Final residual = 0.000575344, No Iterations 6
ExecutionTime = 0.097181 s  ClockTime = 0 s

Time = 32s

smoothSolver:  Solving for Ux, Initial residual = 0.00870879, Final residual = 0.000671227, No Iterations 5
smoothSolver:  Solving for Uy, Initial residual = 0.0257501, Final residual = 0.00178084, No Iterations 6
Pressure gradient source: uncorrected Ubar = 1.00076, pressure gradient = 0.785947
GAMG:  Solving for p, Initial residual = 0.00596664, Final residual = 0.000460837, No Iterations 11
time step continuity errors : sum local = 4.75889e-05, global = -2.34391e-17, cumulative = -1.90364e-17
Pressure gradient source: uncorrected Ubar = 1.00004, pressure gradient = 1.0224
smoothSolver:  Solving for omega, Initial residual = 8.43003e-05, Final residual = 9.74014e-06, No Iterations 5
smoothSolver:  Solving for k, Initial residual = 0.00799014, Final residual = 0.000568431, No Iterations 6
ExecutionTime = 0.100068 s  ClockTime = 0 s

Time = 33s

smoothSolver:  Solving for Ux, Initial residual = 0.00843663, Final residual = 0.00065326, No Iterations 5
smoothSolver:  Solving for Uy, Initial residual = 0.0240914, Final residual = 0.00169632, No Iterations 6
Pressure gradient source: uncorrected Ubar = 1.00072, pressure gradient = 0.780121
GAMG:  Solving for p, Initial residual = 0.00541593, Final residual = 0.000457164, No Iterations 11
time step continuity errors : sum local = 4.5929e-05, global = -4.75017e-18, cumulative = -2.37866e-17
Pressure gradient source: uncorrected Ubar = 1.00003, pressure gradient = 1.01154
smoothSolver:  Solving for omega, Initial residual = 8.24015e-05, Final residual = 9.62366e-06, No Iterations 5
smoothSolver:  Solving for k, Initial residual = 0.00786666, Final residual = 0.000569889, No Iterations 6
ExecutionTime = 0.102936 s  ClockTime = 0 s

Time = 34s

smoothSolver:  Solving for Ux, Initial residual = 0.00818144, Final residual = 0.000636665, No Iterations 5
smoothSolver:  Solving for Uy, Initial residual = 0.021816, Final residual = 0.00155073, No Iterations 6
Pressure gradient source: uncorrected Ubar = 1.0007, pressure gradient = 0.772199
GAMG:  Solving for p, Initial residual = 0.00476408, Final residual = 0.000389444, No Iterations 11
time step continuity errors : sum local = 3.88581e-05, global = -8.65668e-18, cumulative = -3.24433e-17
Pressure gradient source: uncorrected Ubar = 1.00003, pressure gradient = 1.00091
smoothSolver:  Solving for omega, Initial residual = 8.03485e-05, Final residual = 9.35788e-06, No Iterations 5
smoothSolver:  Solving for k, Initial residual = 0.00775781, Final residual = 0.000568149, No Iterations 6
ExecutionTime = 0.105833 s  ClockTime = 0 s

Time = 35s

smoothSolver:  Solving for Ux, Initial residual = 0.00794569, Final residual = 0.000621348, No Iterations 5
smoothSolver:  Solving for Uy, Initial residual = 0.0204605, Final residual = 0.0014584, No Iterations 6
Pressure gradient source: uncorrected Ubar = 1.00066, pressure gradient = 0.768066
GAMG:  Solving for p, Initial residual = 0.0045403, Final residual = 0.000424584, No Iterations 9
time step continuity errors : sum local = 4.05802e-05, global = 1.79452e-17, cumulative = -1.4498e-17
Pressure gradient source: uncorrected Ubar = 1.00003, pressure gradient = 0.990955
smoothSolver:  Solving for omega, Initial residual = 7.83206e-05, Final residual = 9.24615e-06, No Iterations 5
smoothSolver:  Solving for k, Initial residual = 0.0076408, Final residual = 0.000563918, No Iterations 6
ExecutionTime = 0.108598 s  ClockTime = 0 s

Time = 36s

smoothSolver:  Solving for Ux, Initial residual = 0.00773978, Final residual = 0.000607178, No Iterations 5
smoothSolver:  Solving for Uy, Initial residual = 0.0189866, Final residual = 0.00136929, No Iterations 6
Pressure gradient source: uncorrected Ubar = 1.00063, pressure gradient = 0.762571
GAMG:  Solving for p, Initial residual = 0.00403955, Final residual = 0.00037263, No Iterations 9
time step continuity errors : sum local = 3.49156e-05, global = 5.92923e-19, cumulative = -1.39051e-17
Pressure gradient source: uncorrected Ubar = 1.00003, pressure gradient = 0.981414
smoothSolver:  Solving for omega, Initial residual = 7.62882e-05, Final residual = 9.01255e-06, No Iterations 5
smoothSolver:  Solving for k, Initial residual = 0.00757959, Final residual = 0.00057056, No Iterations 6
ExecutionTime = 0.11138 s  ClockTime = 0 s

Time = 37s

smoothSolver:  Solving for Ux, Initial residual = 0.00754468, Final residual = 0.000595133, No Iterations 5
smoothSolver:  Solving for Uy, Initial residual = 0.0180073, Final residual = 0.00131906, No Iterations 6
Pressure gradient source: uncorrected Ubar = 1.00061, pressure gradient = 0.754918
GAMG:  Solving for p, Initial residual = 0.00377628, Final residual = 0.000342615, No Iterations 9
time step continuity errors : sum local = 3.06595e-05, global = 9.93232e-18, cumulative = -3.97279e-18
Pressure gradient source: uncorrected Ubar = 1.00003, pressure gradient = 0.972008
smoothSolver:  Solving for omega, Initial residual = 7.4222e-05, Final residual = 8.81516e-06, No Iterations 5
smoothSolver:  Solving for k, Initial residual = 0.00749108, Final residual = 0.000567801, No Iterations 6
ExecutionTime = 0.11417 s  ClockTime = 0 s

Time = 38s

smoothSolver:  Solving for Ux, Initial residual = 0.00736101, Final residual = 0.000583894, No Iterations 5
smoothSolver:  Solving for Uy, Initial residual = 0.0167537, Final residual = 0.00125576, No Iterations 6
Pressure gradient source: uncorrected Ubar = 1.00058, pressure gradient = 0.748253
GAMG:  Solving for p, Initial residual = 0.00350859, Final residual = 0.00030494, No Iterations 9
time step continuity errors : sum local = 2.61482e-05, global = -3.45877e-17, cumulative = -3.85605e-17
Pressure gradient source: uncorrected Ubar = 1.00002, pressure gradient = 0.962849
smoothSolver:  Solving for omega, Initial residual = 7.2166e-05, Final residual = 8.52911e-06, No Iterations 5
smoothSolver:  Solving for k, Initial residual = 0.00742327, Final residual = 0.000569189, No Iterations 6
ExecutionTime = 0.116967 s  ClockTime = 0 s

Time = 39s

smoothSolver:  Solving for Ux, Initial residual = 0.00718686, Final residual = 0.000573291, No Iterations 5
smoothSolver:  Solving for Uy, Initial residual = 0.0158351, Final residual = 0.00119709, No Iterations 6
Pressure gradient source: uncorrected Ubar = 1.00057, pressure gradient = 0.740494
GAMG:  Solving for p, Initial residual = 0.00311695, Final residual = 0.000291079, No Iterations 9
time step continuity errors : sum local = 2.25956e-05, global = -5.49894e-18, cumulative = -4.40595e-17
Pressure gradient source: uncorrected Ubar = 1.00002, pressure gradient = 0.953779
smoothSolver:  Solving for omega, Initial residual = 7.01718e-05, Final residual = 8.24237e-06, No Iterations 5
smoothSolver:  Solving for k, Initial residual = 0.00736137, Final residual = 0.000565167, No Iterations 6
ExecutionTime = 0.11975 s  ClockTime = 0 s

Time = 40s

smoothSolver:  Solving for Ux, Initial residual = 0.00703402, Final residual = 0.000563428, No Iterations 5
smoothSolver:  Solving for Uy, Initial residual = 0.0150398, Final residual = 0.00111486, No Iterations 6
Pressure gradient source: uncorrected Ubar = 1.00054, pressure gradient = 0.737833
GAMG:  Solving for p, Initial residual = 0.00280235, Final residual = 0.000280205, No Iterations 9
time step continuity errors : sum local = 1.9129e-05, global = -8.38563e-19, cumulative = -4.4898e-17
Pressure gradient source: uncorrected Ubar = 1.00002, pressure gradient = 0.945425
smoothSolver:  Solving for omega, Initial residual = 6.83053e-05, Final residual = 8.16823e-06, No Iterations 5
smoothSolver:  Solving for k, Initial residual = 0.00730272, Final residual = 0.000571089, No Iterations 6
ExecutionTime = 0.122518 s  ClockTime = 0 s

Time = 41s

smoothSolver:  Solving for Ux, Initial residual = 0.00688811, Final residual = 0.000554868, No Iterations 5
smoothSolver:  Solving for Uy, Initial residual = 0.0147703, Final residual = 0.00108344, No Iterations 6
Pressure gradient source: uncorrected Ubar = 1.00052, pressure gradient = 0.731644
GAMG:  Solving for p, Initial residual = 0.00271542, Final residual = 0.000237279, No Iterations 10
time step continuity errors : sum local = 1.4606e-05, global = 1.23764e-17, cumulative = -3.25216e-17
Pressure gradient source: uncorrected Ubar = 1.00002, pressure gradient = 0.937277
smoothSolver:  Solving for omega, Initial residual = 6.6383e-05, Final residual = 7.90551e-06, No Iterations 5
smoothSolver:  Solving for k, Initial residual = 0.00723955, Final residual = 0.000567315, No Iterations 6
ExecutionTime = 0.125365 s  ClockTime = 0 s

Time = 42s

smoothSolver:  Solving for Ux, Initial residual = 0.0067487, Final residual = 0.0005466, No Iterations 5
smoothSolver:  Solving for Uy, Initial residual = 0.0146714, Final residual = 0.00107325, No Iterations 6
Pressure gradient source: uncorrected Ubar = 1.0005, pressure gradient = 0.726753
GAMG:  Solving for p, Initial residual = 0.00284547, Final residual = 0.000259101, No Iterations 10
time step continuity errors : sum local = 1.61659e-05, global = 1.11292e-17, cumulative = -2.13924e-17
Pressure gradient source: uncorrected Ubar = 1.00002, pressure gradient = 0.929473
smoothSolver:  Solving for omega, Initial residual = 6.45638e-05, Final residual = 7.66806e-06, No Iterations 5
smoothSolver:  Solving for k, Initial residual = 0.00717363, Final residual = 0.000563361, No Iterations 6
ExecutionTime = 0.128183 s  ClockTime = 0 s

Time = 43s

smoothSolver:  Solving for Ux, Initial residual = 0.00661599, Final residual = 0.000538437, No Iterations 5
smoothSolver:  Solving for Uy, Initial residual = 0.0147134, Final residual = 0.00108392, No Iterations 6
Pressure gradient source: uncorrected Ubar = 1.00048, pressure gradient = 0.720424
GAMG:  Solving for p, Initial residual = 0.00243509, Final residual = 0.000213158, No Iterations 12
time step continuity errors : sum local = 1.411e-05, global = 1.13369e-17, cumulative = -1.00555e-17
Pressure gradient source: uncorrected Ubar = 1.00002, pressure gradient = 0.9218
smoothSolver:  Solving for omega, Initial residual = 6.28333e-05, Final residual = 7.49755e-06, No Iterations 5
smoothSolver:  Solving for k, Initial residual = 0.00713944, Final residual = 0.000565027, No Iterations 6
ExecutionTime = 0.131092 s  ClockTime = 0 s

Time = 44s

smoothSolver:  Solving for Ux, Initial residual = 0.00649158, Final residual = 0.000530589, No Iterations 5
smoothSolver:  Solving for Uy, Initial residual = 0.0145574, Final residual = 0.00107308, No Iterations 6
Pressure gradient source: uncorrected Ubar = 1.00047, pressure gradient = 0.713758
GAMG:  Solving for p, Initial residual = 0.00224684, Final residual = 0.000210348, No Iterations 12
time step continuity errors : sum local = 1.39602e-05, global = -4.86323e-18, cumulative = -1.49187e-17
Pressure gradient source: uncorrected Ubar = 1.00002, pressure gradient = 0.91421
smoothSolver:  Solving for omega, Initial residual = 6.11101e-05, Final residual = 7.32151e-06, No Iterations 5
smoothSolver:  Solving for k, Initial residual = 0.00706918, Final residual = 0.000557714, No Iterations 6
ExecutionTime = 0.134029 s  ClockTime = 0 s

Time = 45s

smoothSolver:  Solving for Ux, Initial residual = 0.00637648, Final residual = 0.000523856, No Iterations 5
smoothSolver:  Solving for Uy, Initial residual = 0.0145763, Final residual = 0.00107292, No Iterations 6
Pressure gradient source: uncorrected Ubar = 1.00045, pressure gradient = 0.70882
GAMG:  Solving for p, Initial residual = 0.00217346, Final residual = 0.000192989, No Iterations 12
time step continuity errors : sum local = 1.27204e-05, global = -2.76048e-18, cumulative = -1.76792e-17
Pressure gradient source: uncorrected Ubar = 1.00002, pressure gradient = 0.9069
smoothSolver:  Solving for omega, Initial residual = 5.94367e-05, Final residual = 7.11637e-06, No Iterations 5
smoothSolver:  Solving for k, Initial residual = 0.00699759, Final residual = 0.000552707, No Iterations 6
ExecutionTime = 0.13696 s  ClockTime = 0 s

Time = 46s

smoothSolver:  Solving for Ux, Initial residual = 0.00626459, Final residual = 0.000517406, No Iterations 5
smoothSolver:  Solving for Uy, Initial residual = 0.0146582, Final residual = 0.00108659, No Iterations 6
Pressure gradient source: uncorrected Ubar = 1.00044, pressure gradient = 0.702356
GAMG:  Solving for p, Initial residual = 0.00196747, Final residual = 0.000184348, No Iterations 14
time step continuity errors : sum local = 1.24355e-05, global = 4.0179e-18, cumulative = -1.36613e-17
Pressure gradient source: uncorrected Ubar = 1.00002, pressure gradient = 0.899646
smoothSolver:  Solving for omega, Initial residual = 5.78543e-05, Final residual = 6.9265e-06, No Iterations 5
smoothSolver:  Solving for k, Initial residual = 0.00694172, Final residual = 0.000549621, No Iterations 6
ExecutionTime = 0.139964 s  ClockTime = 0 s

Time = 47s

smoothSolver:  Solving for Ux, Initial residual = 0.00615721, Final residual = 0.000511095, No Iterations 5
smoothSolver:  Solving for Uy, Initial residual = 0.0148955, Final residual = 0.00110625, No Iterations 6
Pressure gradient source: uncorrected Ubar = 1.00043, pressure gradient = 0.698553
GAMG:  Solving for p, Initial residual = 0.0017929, Final residual = 0.000175652, No Iterations 14
time step continuity errors : sum local = 1.18674e-05, global = 1.21379e-18, cumulative = -1.24475e-17
Pressure gradient source: uncorrected Ubar = 1.00001, pressure gradient = 0.892784
smoothSolver:  Solving for omega, Initial residual = 5.63105e-05, Final residual = 6.73639e-06, No Iterations 5
smoothSolver:  Solving for k, Initial residual = 0.00689729, Final residual = 0.000550661, No Iterations 6
ExecutionTime = 0.142967 s  ClockTime = 0 s

Time = 48s

smoothSolver:  Solving for Ux, Initial residual = 0.00605196, Final residual = 0.000504434, No Iterations 5
smoothSolver:  Solving for Uy, Initial residual = 0.0145757, Final residual = 0.00107962, No Iterations 6
Pressure gradient source: uncorrected Ubar = 1.00041, pressure gradient = 0.694104
GAMG:  Solving for p, Initial residual = 0.00191478, Final residual = 0.000189941, No Iterations 14
time step continuity errors : sum local = 1.26323e-05, global = 6.00038e-18, cumulative = -6.44714e-18
Pressure gradient source: uncorrected Ubar = 1.00001, pressure gradient = 0.8862
smoothSolver:  Solving for omega, Initial residual = 5.48589e-05, Final residual = 6.62998e-06, No Iterations 5
smoothSolver:  Solving for k, Initial residual = 0.00684817, Final residual = 0.000548868, No Iterations 6
ExecutionTime = 0.146004 s  ClockTime = 0 s

Time = 49s

smoothSolver:  Solving for Ux, Initial residual = 0.00595872, Final residual = 0.000498645, No Iterations 5
smoothSolver:  Solving for Uy, Initial residual = 0.0150405, Final residual = 0.00112466, No Iterations 6
Pressure gradient source: uncorrected Ubar = 1.0004, pressure gradient = 0.691252
GAMG:  Solving for p, Initial residual = 0.00209612, Final residual = 0.000200589, No Iterations 14
time step continuity errors : sum local = 1.31808e-05, global = 7.96804e-18, cumulative = 1.5209e-18
Pressure gradient source: uncorrected Ubar = 1.00001, pressure gradient = 0.88006
smoothSolver:  Solving for omega, Initial residual = 5.33795e-05, Final residual = 9.75083e-06, No Iterations 4
smoothSolver:  Solving for k, Initial residual = 0.00680456, Final residual = 0.000544914, No Iterations 6
ExecutionTime = 0.149031 s  ClockTime = 0 s

Time = 50s

smoothSolver:  Solving for Ux, Initial residual = 0.00587311, Final residual = 0.000493768, No Iterations 5
smoothSolver:  Solving for Uy, Initial residual = 0.0150666, Final residual = 0.00113026, No Iterations 6
Pressure gradient source: uncorrected Ubar = 1.0004, pressure gradient = 0.677944
GAMG:  Solving for p, Initial residual = 0.0018452, Final residual = 0.000173082, No Iterations 16
time step continuity errors : sum local = 1.1534e-05, global = 4.60997e-18, cumulative = 6.13088e-18
Pressure gradient source: uncorrected Ubar = 1.00001, pressure gradient = 0.873018
smoothSolver:  Solving for omega, Initial residual = 5.23986e-05, Final residual = 9.594e-06, No Iterations 4
smoothSolver:  Solving for k, Initial residual = 0.00676236, Final residual = 0.000543324, No Iterations 6
ExecutionTime = 0.152117 s  ClockTime = 0 s

Time = 51s

smoothSolver:  Solving for Ux, Initial residual = 0.00578766, Final residual = 0.000488965, No Iterations 5
smoothSolver:  Solving for Uy, Initial residual = 0.0151981, Final residual = 0.00114607, No Iterations 6
Pressure gradient source: uncorrected Ubar = 1.00039, pressure gradient = 0.673986
GAMG:  Solving for p, Initial residual = 0.00162474, Final residual = 0.000153176, No Iterations 18
time step continuity errors : sum local = 1.03175e-05, global = 1.68051e-18, cumulative = 7.81139e-18
Pressure gradient source: uncorrected Ubar = 1.00001, pressure gradient = 0.866347
smoothSolver:  Solving for omega, Initial residual = 5.13191e-05, Final residual = 9.37215e-06, No Iterations 4
smoothSolver:  Solving for k, Initial residual = 0.0067512, Final residual = 0.00054629, No Iterations 6
ExecutionTime = 0.155323 s  ClockTime = 0 s

Time = 52s

smoothSolver:  Solving for Ux, Initial residual = 0.00570274, Final residual = 0.000484065, No Iterations 5
smoothSolver:  Solving for Uy, Initial residual = 0.0151934, Final residual = 0.00114958, No Iterations 6
Pressure gradient source: uncorrected Ubar = 1.00038, pressure gradient = 0.670118
GAMG:  Solving for p, Initial residual = 0.00163355, Final residual = 0.000157578, No Iterations 18
time step continuity errors : sum local = 1.04067e-05, global = -1.87808e-17, cumulative = -1.09694e-17
Pressure gradient source: uncorrected Ubar = 1.00001, pressure gradient = 0.860032
smoothSolver:  Solving for omega, Initial residual = 5.03235e-05, Final residual = 9.24221e-06, No Iterations 4
smoothSolver:  Solving for k, Initial residual = 0.00670112, Final residual = 0.000543141, No Iterations 6
ExecutionTime = 0.158501 s  ClockTime = 0 s

Time = 53s

smoothSolver:  Solving for Ux, Initial residual = 0.00562518, Final residual = 0.000479204, No Iterations 5
smoothSolver:  Solving for Uy, Initial residual = 0.0151273, Final residual = 0.00114575, No Iterations 6
Pressure gradient source: uncorrected Ubar = 1.00037, pressure gradient = 0.663549
GAMG:  Solving for p, Initial residual = 0.00196958, Final residual = 0.000172678, No Iterations 16
time step continuity errors : sum local = 1.08367e-05, global = 1.47278e-17, cumulative = 3.75834e-18
Pressure gradient source: uncorrected Ubar = 1.00001, pressure gradient = 0.853693
smoothSolver:  Solving for omega, Initial residual = 4.92691e-05, Final residual = 9.00404e-06, No Iterations 4
smoothSolver:  Solving for k, Initial residual = 0.00666414, Final residual = 0.000541104, No Iterations 6
ExecutionTime = 0.16162 s  ClockTime = 0 s

Time = 54s

smoothSolver:  Solving for Ux, Initial residual = 0.00555233, Final residual = 0.000474936, No Iterations 5
smoothSolver:  Solving for Uy, Initial residual = 0.0150973, Final residual = 0.00114959, No Iterations 6
Pressure gradient source: uncorrected Ubar = 1.00036, pressure gradient = 0.65842
GAMG:  Solving for p, Initial residual = 0.00169106, Final residual = 0.000157573, No Iterations 18
time step continuity errors : sum local = 9.88063e-06, global = 2.23617e-18, cumulative = 5.99451e-18
Pressure gradient source: uncorrected Ubar = 1.00001, pressure gradient = 0.847513
smoothSolver:  Solving for omega, Initial residual = 4.82823e-05, Final residual = 8.90198e-06, No Iterations 4
smoothSolver:  Solving for k, Initial residual = 0.00664592, Final residual = 0.00054139, No Iterations 6
ExecutionTime = 0.16544 s  ClockTime = 0 s

Time = 55s

smoothSolver:  Solving for Ux, Initial residual = 0.00547972, Final residual = 0.000470661, No Iterations 5
smoothSolver:  Solving for Uy, Initial residual = 0.0151111, Final residual = 0.00115709, No Iterations 6
Pressure gradient source: uncorrected Ubar = 1.00035, pressure gradient = 0.655433
GAMG:  Solving for p, Initial residual = 0.0016674, Final residual = 0.000145032, No Iterations 20
time step continuity errors : sum local = 9.05657e-06, global = -3.76125e-18, cumulative = 2.23326e-18
Pressure gradient source: uncorrected Ubar = 1.00001, pressure gradient = 0.841748
smoothSolver:  Solving for omega, Initial residual = 4.7269e-05, Final residual = 8.69976e-06, No Iterations 4
smoothSolver:  Solving for k, Initial residual = 0.00660616, Final residual = 0.000540763, No Iterations 6
ExecutionTime = 0.17009 s  ClockTime = 0 s

Time = 56s

smoothSolver:  Solving for Ux, Initial residual = 0.0054065, Final residual = 0.000466315, No Iterations 5
smoothSolver:  Solving for Uy, Initial residual = 0.0150299, Final residual = 0.00115481, No Iterations 6
Pressure gradient source: uncorrected Ubar = 1.00034, pressure gradient = 0.648943
GAMG:  Solving for p, Initial residual = 0.00154393, Final residual = 0.000151865, No Iterations 18
time step continuity errors : sum local = 9.16692e-06, global = 4.84418e-18, cumulative = 7.07744e-18
Pressure gradient source: uncorrected Ubar = 1.00001, pressure gradient = 0.835909
smoothSolver:  Solving for omega, Initial residual = 4.63213e-05, Final residual = 8.53684e-06, No Iterations 4
smoothSolver:  Solving for k, Initial residual = 0.00656287, Final residual = 0.000537853, No Iterations 6
ExecutionTime = 0.173561 s  ClockTime = 0 s

Time = 57s

smoothSolver:  Solving for Ux, Initial residual = 0.00533531, Final residual = 0.000461909, No Iterations 5
smoothSolver:  Solving for Uy, Initial residual = 0.0146915, Final residual = 0.00113103, No Iterations 6
Pressure gradient source: uncorrected Ubar = 1.00034, pressure gradient = 0.642909
GAMG:  Solving for p, Initial residual = 0.00181588, Final residual = 0.000161262, No Iterations 18
time step continuity errors : sum local = 9.47465e-06, global = 9.77603e-18, cumulative = 1.68535e-17
Pressure gradient source: uncorrected Ubar = 1.00001, pressure gradient = 0.83007
smoothSolver:  Solving for omega, Initial residual = 4.53338e-05, Final residual = 8.32528e-06, No Iterations 4
smoothSolver:  Solving for k, Initial residual = 0.00653997, Final residual = 0.00053693, No Iterations 6
ExecutionTime = 0.176779 s  ClockTime = 0 s

Time = 58s

smoothSolver:  Solving for Ux, Initial residual = 0.00527254, Final residual = 0.000458009, No Iterations 5
smoothSolver:  Solving for Uy, Initial residual = 0.0146026, Final residual = 0.00112822, No Iterations 6
Pressure gradient source: uncorrected Ubar = 1.00033, pressure gradient = 0.637249
GAMG:  Solving for p, Initial residual = 0.0016692, Final residual = 0.000147371, No Iterations 20
time step continuity errors : sum local = 8.605e-06, global = -9.10857e-18, cumulative = 7.7449e-18
Pressure gradient source: uncorrected Ubar = 1.00001, pressure gradient = 0.824286
smoothSolver:  Solving for omega, Initial residual = 4.44343e-05, Final residual = 8.21346e-06, No Iterations 4
smoothSolver:  Solving for k, Initial residual = 0.0065002, Final residual = 0.000534085, No Iterations 6
ExecutionTime = 0.18013 s  ClockTime = 0 s

Time = 59s

smoothSolver:  Solving for Ux, Initial residual = 0.00520983, Final residual = 0.000454183, No Iterations 5
smoothSolver:  Solving for Uy, Initial residual = 0.0145322, Final residual = 0.00112826, No Iterations 6
Pressure gradient source: uncorrected Ubar = 1.00033, pressure gradient = 0.631202
GAMG:  Solving for p, Initial residual = 0.00163133, Final residual = 0.000163083, No Iterations 18
time step continuity errors : sum local = 9.16411e-06, global = -3.7947e-19, cumulative = 7.36543e-18
Pressure gradient source: uncorrected Ubar = 1.00001, pressure gradient = 0.818492
smoothSolver:  Solving for omega, Initial residual = 4.34947e-05, Final residual = 8.02662e-06, No Iterations 4
smoothSolver:  Solving for k, Initial residual = 0.00646467, Final residual = 0.000533076, No Iterations 6
ExecutionTime = 0.18335 s  ClockTime = 0 s

Time = 60s

smoothSolver:  Solving for Ux, Initial residual = 0.00514687, Final residual = 0.00045047, No Iterations 5
smoothSolver:  Solving for Uy, Initial residual = 0.0144269, Final residual = 0.00112312, No Iterations 6
Pressure gradient source: uncorrected Ubar = 1.00032, pressure gradient = 0.624546
GAMG:  Solving for p, Initial residual = 0.00152539, Final residual = 0.000137768, No Iterations 20
time step continuity errors : sum local = 7.70094e-06, global = 4.87891e-19, cumulative = 7.85332e-18
Pressure gradient source: uncorrected Ubar = 1.00001, pressure gradient = 0.812616
smoothSolver:  Solving for omega, Initial residual = 4.26446e-05, Final residual = 7.89298e-06, No Iterations 4
smoothSolver:  Solving for k, Initial residual = 0.0064382, Final residual = 0.000531896, No Iterations 6
ExecutionTime = 0.186646 s  ClockTime = 0 s

Time = 61s

smoothSolver:  Solving for Ux, Initial residual = 0.00508452, Final residual = 0.000446618, No Iterations 5
smoothSolver:  Solving for Uy, Initial residual = 0.0141048, Final residual = 0.00109954, No Iterations 6
Pressure gradient source: uncorrected Ubar = 1.00032, pressure gradient = 0.617822
GAMG:  Solving for p, Initial residual = 0.00171088, Final residual = 0.000158953, No Iterations 18
time step continuity errors : sum local = 8.51996e-06, global = -3.27039e-18, cumulative = 4.58293e-18
Pressure gradient source: uncorrected Ubar = 1.00001, pressure gradient = 0.806669
smoothSolver:  Solving for omega, Initial residual = 4.1743e-05, Final residual = 7.70622e-06, No Iterations 4
smoothSolver:  Solving for k, Initial residual = 0.00640147, Final residual = 0.000530162, No Iterations 6
ExecutionTime = 0.189846 s  ClockTime = 0 s

Time = 62s

smoothSolver:  Solving for Ux, Initial residual = 0.00502822, Final residual = 0.000442996, No Iterations 5
smoothSolver:  Solving for Uy, Initial residual = 0.0140181, Final residual = 0.00109619, No Iterations 6
Pressure gradient source: uncorrected Ubar = 1.00031, pressure gradient = 0.609216
GAMG:  Solving for p, Initial residual = 0.00153205, Final residual = 0.000138925, No Iterations 20
time step continuity errors : sum local = 7.40713e-06, global = -2.03754e-18, cumulative = 2.54539e-18
Pressure gradient source: uncorrected Ubar = 1.00001, pressure gradient = 0.800422
smoothSolver:  Solving for omega, Initial residual = 4.09265e-05, Final residual = 7.59566e-06, No Iterations 4
smoothSolver:  Solving for k, Initial residual = 0.00637288, Final residual = 0.000527566, No Iterations 6
ExecutionTime = 0.193095 s  ClockTime = 0 s

Time = 63s

smoothSolver:  Solving for Ux, Initial residual = 0.0049739, Final residual = 0.000439653, No Iterations 5
smoothSolver:  Solving for Uy, Initial residual = 0.0139639, Final residual = 0.00109562, No Iterations 6
Pressure gradient source: uncorrected Ubar = 1.00031, pressure gradient = 0.601954
GAMG:  Solving for p, Initial residual = 0.00154278, Final residual = 0.000138621, No Iterations 20
time step continuity errors : sum local = 7.2056e-06, global = 3.17426e-18, cumulative = 5.71965e-18
Pressure gradient source: uncorrected Ubar = 1.00001, pressure gradient = 0.794079
smoothSolver:  Solving for omega, Initial residual = 4.00772e-05, Final residual = 7.43351e-06, No Iterations 4
smoothSolver:  Solving for k, Initial residual = 0.00633514, Final residual = 0.000526645, No Iterations 6
ExecutionTime = 0.196465 s  ClockTime = 0 s

Time = 64s

smoothSolver:  Solving for Ux, Initial residual = 0.0049193, Final residual = 0.000436417, No Iterations 5
smoothSolver:  Solving for Uy, Initial residual = 0.0138011, Final residual = 0.00108636, No Iterations 6
Pressure gradient source: uncorrected Ubar = 1.00031, pressure gradient = 0.593586
GAMG:  Solving for p, Initial residual = 0.00144429, Final residual = 0.000132158, No Iterations 20
time step continuity errors : sum local = 6.73842e-06, global = -6.61956e-18, cumulative = -8.99916e-19
Pressure gradient source: uncorrected Ubar = 1.00001, pressure gradient = 0.78751
smoothSolver:  Solving for omega, Initial residual = 3.92972e-05, Final residual = 7.30058e-06, No Iterations 4
smoothSolver:  Solving for k, Initial residual = 0.00631199, Final residual = 0.000525014, No Iterations 6
ExecutionTime = 0.199731 s  ClockTime = 0 s

Time = 65s

smoothSolver:  Solving for Ux, Initial residual = 0.00486524, Final residual = 0.000433212, No Iterations 5
smoothSolver:  Solving for Uy, Initial residual = 0.0135572, Final residual = 0.00107004, No Iterations 6
Pressure gradient source: uncorrected Ubar = 1.00031, pressure gradient = 0.585211
GAMG:  Solving for p, Initial residual = 0.00136764, Final residual = 0.000130964, No Iterations 20
time step continuity errors : sum local = 6.50125e-06, global = -5.51418e-18, cumulative = -6.4141e-18
Pressure gradient source: uncorrected Ubar = 1.00001, pressure gradient = 0.780743
smoothSolver:  Solving for omega, Initial residual = 3.85116e-05, Final residual = 7.14763e-06, No Iterations 4
smoothSolver:  Solving for k, Initial residual = 0.00627902, Final residual = 0.000522886, No Iterations 6
ExecutionTime = 0.202998 s  ClockTime = 0 s

Time = 66s

smoothSolver:  Solving for Ux, Initial residual = 0.00481331, Final residual = 0.000429754, No Iterations 5
smoothSolver:  Solving for Uy, Initial residual = 0.0131667, Final residual = 0.00104085, No Iterations 6
Pressure gradient source: uncorrected Ubar = 1.00031, pressure gradient = 0.574645
GAMG:  Solving for p, Initial residual = 0.00153529, Final residual = 0.000149073, No Iterations 18
time step continuity errors : sum local = 7.15804e-06, global = -5.55611e-18, cumulative = -1.19702e-17
Pressure gradient source: uncorrected Ubar = 1.00001, pressure gradient = 0.773532
smoothSolver:  Solving for omega, Initial residual = 3.77816e-05, Final residual = 7.04071e-06, No Iterations 4
smoothSolver:  Solving for k, Initial residual = 0.00624856, Final residual = 0.000521194, No Iterations 6
ExecutionTime = 0.206198 s  ClockTime = 0 s

Time = 67s

smoothSolver:  Solving for Ux, Initial residual = 0.00476729, Final residual = 0.000426938, No Iterations 5
smoothSolver:  Solving for Uy, Initial residual = 0.0131984, Final residual = 0.00104752, No Iterations 6
Pressure gradient source: uncorrected Ubar = 1.0003, pressure gradient = 0.56556
GAMG:  Solving for p, Initial residual = 0.0014891, Final residual = 0.000136531, No Iterations 20
time step continuity errors : sum local = 6.50386e-06, global = 1.7991e-18, cumulative = -1.01711e-17
Pressure gradient source: uncorrected Ubar = 1.00001, pressure gradient = 0.766113
smoothSolver:  Solving for omega, Initial residual = 3.71018e-05, Final residual = 6.92252e-06, No Iterations 4
smoothSolver:  Solving for k, Initial residual = 0.00622121, Final residual = 0.000520376, No Iterations 6
ExecutionTime = 0.20949 s  ClockTime = 0 s

Time = 68s

smoothSolver:  Solving for Ux, Initial residual = 0.00472041, Final residual = 0.000424193, No Iterations 5
smoothSolver:  Solving for Uy, Initial residual = 0.0130851, Final residual = 0.00104085, No Iterations 6
Pressure gradient source: uncorrected Ubar = 1.0003, pressure gradient = 0.555422
GAMG:  Solving for p, Initial residual = 0.00144216, Final residual = 0.000129638, No Iterations 20
time step continuity errors : sum local = 6.05759e-06, global = 1.13456e-17, cumulative = 1.17447e-18
Pressure gradient source: uncorrected Ubar = 1.00001, pressure gradient = 0.758376
smoothSolver:  Solving for omega, Initial residual = 3.64491e-05, Final residual = 6.81745e-06, No Iterations 4
smoothSolver:  Solving for k, Initial residual = 0.00619591, Final residual = 0.000518055, No Iterations 6
ExecutionTime = 0.212785 s  ClockTime = 0 s

Time = 69s

smoothSolver:  Solving for Ux, Initial residual = 0.00467332, Final residual = 0.000421461, No Iterations 5
smoothSolver:  Solving for Uy, Initial residual = 0.0128333, Final residual = 0.00102406, No Iterations 6
Pressure gradient source: uncorrected Ubar = 1.0003, pressure gradient = 0.545086
GAMG:  Solving for p, Initial residual = 0.00134089, Final residual = 0.000128359, No Iterations 20
time step continuity errors : sum local = 5.83479e-06, global = -3.81122e-18, cumulative = -2.63676e-18
Pressure gradient source: uncorrected Ubar = 1.00001, pressure gradient = 0.750335
smoothSolver:  Solving for omega, Initial residual = 3.5893e-05, Final residual = 6.71496e-06, No Iterations 4
smoothSolver:  Solving for k, Initial residual = 0.00616301, Final residual = 0.000516198, No Iterations 6
ExecutionTime = 0.216135 s  ClockTime = 0 s

Time = 70s

smoothSolver:  Solving for Ux, Initial residual = 0.00462735, Final residual = 0.00041863, No Iterations 5
smoothSolver:  Solving for Uy, Initial residual = 0.0124362, Final residual = 0.000993908, No Iterations 6
Pressure gradient source: uncorrected Ubar = 1.0003, pressure gradient = 0.533868
GAMG:  Solving for p, Initial residual = 0.0015124, Final residual = 0.00014474, No Iterations 18
time step continuity errors : sum local = 6.36256e-06, global = 5.14994e-19, cumulative = -2.12176e-18
Pressure gradient source: uncorrected Ubar = 1.00001, pressure gradient = 0.741915
smoothSolver:  Solving for omega, Initial residual = 3.54126e-05, Final residual = 6.64822e-06, No Iterations 4
smoothSolver:  Solving for k, Initial residual = 0.00613628, Final residual = 0.000515096, No Iterations 6
ExecutionTime = 0.219363 s  ClockTime = 0 s

Time = 71s

smoothSolver:  Solving for Ux, Initial residual = 0.00458397, Final residual = 0.00041576, No Iterations 5
smoothSolver:  Solving for Uy, Initial residual = 0.0124671, Final residual = 0.000998206, No Iterations 6
Pressure gradient source: uncorrected Ubar = 1.0003, pressure gradient = 0.521886
GAMG:  Solving for p, Initial residual = 0.00154866, Final residual = 0.000148818, No Iterations 18
time step continuity errors : sum local = 6.39702e-06, global = -4.20806e-18, cumulative = -6.32982e-18
Pressure gradient source: uncorrected Ubar = 1.00001, pressure gradient = 0.733067
smoothSolver:  Solving for omega, Initial residual = 3.4936e-05, Final residual = 9.89919e-06, No Iterations 3
smoothSolver:  Solving for k, Initial residual = 0.00612207, Final residual = 0.000514445, No Iterations 6
ExecutionTime = 0.222578 s  ClockTime = 0 s

Time = 72s

smoothSolver:  Solving for Ux, Initial residual = 0.00454884, Final residual = 0.000413999, No Iterations 5
smoothSolver:  Solving for Uy, Initial residual = 0.0123219, Final residual = 0.000988826, No Iterations 6
Pressure gradient source: uncorrected Ubar = 1.00031, pressure gradient = 0.500766
GAMG:  Solving for p, Initial residual = 0.00143758, Final residual = 0.000141853, No Iterations 18
time step continuity errors : sum local = 5.96467e-06, global = -2.92099e-18, cumulative = -9.25081e-18
Pressure gradient source: uncorrected Ubar = 1.00001, pressure gradient = 0.722663
smoothSolver:  Solving for omega, Initial residual = 3.47249e-05, Final residual = 9.85467e-06, No Iterations 3
smoothSolver:  Solving for k, Initial residual = 0.00611948, Final residual = 0.000514532, No Iterations 6
ExecutionTime = 0.22581 s  ClockTime = 0 s

Time = 73s

smoothSolver:  Solving for Ux, Initial residual = 0.00451361, Final residual = 0.000412303, No Iterations 5
smoothSolver:  Solving for Uy, Initial residual = 0.0121204, Final residual = 0.000976301, No Iterations 6
Pressure gradient source: uncorrected Ubar = 1.00031, pressure gradient = 0.488147
GAMG:  Solving for p, Initial residual = 0.00128142, Final residual = 0.000119842, No Iterations 20
time step continuity errors : sum local = 4.97339e-06, global = -1.93399e-18, cumulative = -1.11848e-17
Pressure gradient source: uncorrected Ubar = 1.00001, pressure gradient = 0.711985
smoothSolver:  Solving for omega, Initial residual = 3.4442e-05, Final residual = 9.7747e-06, No Iterations 3
smoothSolver:  Solving for k, Initial residual = 0.00610277, Final residual = 0.000514083, No Iterations 6
ExecutionTime = 0.229105 s  ClockTime = 0 s

Time = 74s

smoothSolver:  Solving for Ux, Initial residual = 0.00447824, Final residual = 0.000410492, No Iterations 5
smoothSolver:  Solving for Uy, Initial residual = 0.0117998, Final residual = 0.000952717, No Iterations 6
Pressure gradient source: uncorrected Ubar = 1.00031, pressure gradient = 0.474904
GAMG:  Solving for p, Initial residual = 0.00150977, Final residual = 0.000137373, No Iterations 18
time step continuity errors : sum local = 5.54089e-06, global = 1.07573e-19, cumulative = -1.10772e-17
Pressure gradient source: uncorrected Ubar = 1.00001, pressure gradient = 0.700984
smoothSolver:  Solving for omega, Initial residual = 3.41366e-05, Final residual = 9.68413e-06, No Iterations 3
smoothSolver:  Solving for k, Initial residual = 0.00609544, Final residual = 0.000514655, No Iterations 6
ExecutionTime = 0.23232 s  ClockTime = 0 s

Time = 75s

smoothSolver:  Solving for Ux, Initial residual = 0.00444137, Final residual = 0.000408487, No Iterations 5
smoothSolver:  Solving for Uy, Initial residual = 0.0117735, Final residual = 0.000951776, No Iterations 6
Pressure gradient source: uncorrected Ubar = 1.00031, pressure gradient = 0.460335
GAMG:  Solving for p, Initial residual = 0.00138746, Final residual = 0.00013785, No Iterations 18
time step continuity errors : sum local = 5.4129e-06, global = 8.90867e-19, cumulative = -1.01864e-17
Pressure gradient source: uncorrected Ubar = 1.00001, pressure gradient = 0.68953
smoothSolver:  Solving for omega, Initial residual = 3.38139e-05, Final residual = 9.61013e-06, No Iterations 3
smoothSolver:  Solving for k, Initial residual = 0.00608451, Final residual = 0.000513588, No Iterations 6
ExecutionTime = 0.235544 s  ClockTime = 0 s

Time = 76s

smoothSolver:  Solving for Ux, Initial residual = 0.00441027, Final residual = 0.000406762, No Iterations 5
smoothSolver:  Solving for Uy, Initial residual = 0.0116549, Final residual = 0.000943404, No Iterations 6
Pressure gradient source: uncorrected Ubar = 1.0003, pressure gradient = 0.446308
GAMG:  Solving for p, Initial residual = 0.00125942, Final residual = 0.000113711, No Iterations 20
time step continuity errors : sum local = 4.41497e-06, global = 5.45341e-18, cumulative = -4.73295e-18
Pressure gradient source: uncorrected Ubar = 1.00001, pressure gradient = 0.677749
smoothSolver:  Solving for omega, Initial residual = 3.34762e-05, Final residual = 9.5018e-06, No Iterations 3
smoothSolver:  Solving for k, Initial residual = 0.00607259, Final residual = 0.000513522, No Iterations 6
ExecutionTime = 0.238801 s  ClockTime = 0 s

Time = 77s

smoothSolver:  Solving for Ux, Initial residual = 0.00437926, Final residual = 0.000405392, No Iterations 5
smoothSolver:  Solving for Uy, Initial residual = 0.011484, Final residual = 0.00093188, No Iterations 6
Pressure gradient source: uncorrected Ubar = 1.0003, pressure gradient = 0.432666
GAMG:  Solving for p, Initial residual = 0.00127068, Final residual = 0.000123965, No Iterations 18
time step continuity errors : sum local = 4.61378e-06, global = 1.88838e-17, cumulative = 1.41508e-17
Pressure gradient source: uncorrected Ubar = 1.00001, pressure gradient = 0.665726
smoothSolver:  Solving for omega, Initial residual = 3.31263e-05, Final residual = 9.42006e-06, No Iterations 3
smoothSolver:  Solving for k, Initial residual = 0.0060523, Final residual = 0.00051185, No Iterations 6
ExecutionTime = 0.241989 s  ClockTime = 0 s

Time = 78s

smoothSolver:  Solving for Ux, Initial residual = 0.00434849, Final residual = 0.000403904, No Iterations 5
smoothSolver:  Solving for Uy, Initial residual = 0.0111908, Final residual = 0.000910236, No Iterations 6
Pressure gradient source: uncorrected Ubar = 1.0003, pressure gradient = 0.418467
GAMG:  Solving for p, Initial residual = 0.00135334, Final residual = 0.000122231, No Iterations 18
time step continuity errors : sum local = 4.493e-06, global = -4.51913e-18, cumulative = 9.63166e-18
Pressure gradient source: uncorrected Ubar = 1.00001, pressure gradient = 0.653419
smoothSolver:  Solving for omega, Initial residual = 3.27667e-05, Final residual = 9.30373e-06, No Iterations 3
smoothSolver:  Solving for k, Initial residual = 0.00604088, Final residual = 0.000512438, No Iterations 6
ExecutionTime = 0.245193 s  ClockTime = 0 s

Time = 79s

smoothSolver:  Solving for Ux, Initial residual = 0.00431625, Final residual = 0.000402287, No Iterations 5
smoothSolver:  Solving for Uy, Initial residual = 0.0112002, Final residual = 0.000912674, No Iterations 6
Pressure gradient source: uncorrected Ubar = 1.0003, pressure gradient = 0.403481
GAMG:  Solving for p, Initial residual = 0.00133135, Final residual = 0.00013162, No Iterations 18
time step continuity errors : sum local = 4.74113e-06, global = 2.65418e-18, cumulative = 1.22858e-17
Pressure gradient source: uncorrected Ubar = 1.00002, pressure gradient = 0.640761
smoothSolver:  Solving for omega, Initial residual = 3.24186e-05, Final residual = 9.22012e-06, No Iterations 3
smoothSolver:  Solving for k, Initial residual = 0.00601804, Final residual = 0.000509473, No Iterations 6
ExecutionTime = 0.248359 s  ClockTime = 0 s

Time = 80s

smoothSolver:  Solving for Ux, Initial residual = 0.00428672, Final residual = 0.000400846, No Iterations 5
smoothSolver:  Solving for Uy, Initial residual = 0.0110816, Final residual = 0.000904056, No Iterations 6
Pressure gradient source: uncorrected Ubar = 1.0003, pressure gradient = 0.389665
GAMG:  Solving for p, Initial residual = 0.00128421, Final residual = 0.000117806, No Iterations 18
time step continuity errors : sum local = 4.13837e-06, global = -2.17285e-18, cumulative = 1.0113e-17
Pressure gradient source: uncorrected Ubar = 1.00002, pressure gradient = 0.627944
smoothSolver:  Solving for omega, Initial residual = 3.20571e-05, Final residual = 9.09452e-06, No Iterations 3
smoothSolver:  Solving for k, Initial residual = 0.00600344, Final residual = 0.000509885, No Iterations 6
ExecutionTime = 0.251558 s  ClockTime = 0 s

Time = 81s

smoothSolver:  Solving for Ux, Initial residual = 0.00426077, Final residual = 0.0003995, No Iterations 5
smoothSolver:  Solving for Uy, Initial residual = 0.0107863, Final residual = 0.000882365, No Iterations 6
Pressure gradient source: uncorrected Ubar = 1.00029, pressure gradient = 0.374987
GAMG:  Solving for p, Initial residual = 0.00119547, Final residual = 0.000111091, No Iterations 18
time step continuity errors : sum local = 3.76614e-06, global = 1.01674e-17, cumulative = 2.02804e-17
Pressure gradient source: uncorrected Ubar = 1.00002, pressure gradient = 0.614875
smoothSolver:  Solving for omega, Initial residual = 3.17019e-05, Final residual = 9.00757e-06, No Iterations 3
smoothSolver:  Solving for k, Initial residual = 0.00598298, Final residual = 0.0005079, No Iterations 6
ExecutionTime = 0.254749 s  ClockTime = 0 s

Time = 82s

smoothSolver:  Solving for Ux, Initial residual = 0.00423487, Final residual = 0.000398384, No Iterations 5
smoothSolver:  Solving for Uy, Initial residual = 0.0105496, Final residual = 0.000863813, No Iterations 6
Pressure gradient source: uncorrected Ubar = 1.00029, pressure gradient = 0.360474
GAMG:  Solving for p, Initial residual = 0.00129987, Final residual = 0.000123466, No Iterations 16
time step continuity errors : sum local = 4.07929e-06, global = -5.96248e-18, cumulative = 1.43179e-17
Pressure gradient source: uncorrected Ubar = 1.00002, pressure gradient = 0.601607
smoothSolver:  Solving for omega, Initial residual = 3.13511e-05, Final residual = 8.88801e-06, No Iterations 3
smoothSolver:  Solving for k, Initial residual = 0.00596507, Final residual = 0.000507704, No Iterations 6
ExecutionTime = 0.257824 s  ClockTime = 0 s

Time = 83s

smoothSolver:  Solving for Ux, Initial residual = 0.0042071, Final residual = 0.000397127, No Iterations 5
smoothSolver:  Solving for Uy, Initial residual = 0.0105897, Final residual = 0.000870092, No Iterations 6
Pressure gradient source: uncorrected Ubar = 1.00029, pressure gradient = 0.345769
GAMG:  Solving for p, Initial residual = 0.00134633, Final residual = 0.000118079, No Iterations 16
time step continuity errors : sum local = 3.86439e-06, global = -7.30672e-18, cumulative = 7.01116e-18
Pressure gradient source: uncorrected Ubar = 1.00002, pressure gradient = 0.588137
smoothSolver:  Solving for omega, Initial residual = 3.10202e-05, Final residual = 8.81161e-06, No Iterations 3
smoothSolver:  Solving for k, Initial residual = 0.00594243, Final residual = 0.000505403, No Iterations 6
ExecutionTime = 0.260899 s  ClockTime = 0 s

Time = 84s

smoothSolver:  Solving for Ux, Initial residual = 0.00417884, Final residual = 0.000396011, No Iterations 5
smoothSolver:  Solving for Uy, Initial residual = 0.0105916, Final residual = 0.000870152, No Iterations 6
Pressure gradient source: uncorrected Ubar = 1.00029, pressure gradient = 0.331424
GAMG:  Solving for p, Initial residual = 0.00125736, Final residual = 0.000122638, No Iterations 18
time step continuity errors : sum local = 3.97506e-06, global = 1.92848e-18, cumulative = 8.93964e-18
Pressure gradient source: uncorrected Ubar = 1.00002, pressure gradient = 0.574535
smoothSolver:  Solving for omega, Initial residual = 3.06704e-05, Final residual = 8.69226e-06, No Iterations 3
smoothSolver:  Solving for k, Initial residual = 0.00591652, Final residual = 0.000504145, No Iterations 6
ExecutionTime = 0.26413 s  ClockTime = 0 s

Time = 85s

smoothSolver:  Solving for Ux, Initial residual = 0.00415668, Final residual = 0.000394939, No Iterations 5
smoothSolver:  Solving for Uy, Initial residual = 0.0103338, Final residual = 0.000849926, No Iterations 6
Pressure gradient source: uncorrected Ubar = 1.00028, pressure gradient = 0.317618
GAMG:  Solving for p, Initial residual = 0.00112645, Final residual = 0.000109951, No Iterations 18
time step continuity errors : sum local = 3.43701e-06, global = -5.57644e-18, cumulative = 3.3632e-18
Pressure gradient source: uncorrected Ubar = 1.00001, pressure gradient = 0.560886
smoothSolver:  Solving for omega, Initial residual = 3.03583e-05, Final residual = 8.61362e-06, No Iterations 3
smoothSolver:  Solving for k, Initial residual = 0.00589837, Final residual = 0.000502888, No Iterations 6
ExecutionTime = 0.267315 s  ClockTime = 0 s

Time = 86s

smoothSolver:  Solving for Ux, Initial residual = 0.00413429, Final residual = 0.000393744, No Iterations 5
smoothSolver:  Solving for Uy, Initial residual = 0.0100146, Final residual = 0.000824416, No Iterations 6
Pressure gradient source: uncorrected Ubar = 1.00028, pressure gradient = 0.303074
GAMG:  Solving for p, Initial residual = 0.00129917, Final residual = 0.000128776, No Iterations 14
time step continuity errors : sum local = 3.81546e-06, global = -1.00882e-18, cumulative = 2.35438e-18
Pressure gradient source: uncorrected Ubar = 1.00001, pressure gradient = 0.5471
smoothSolver:  Solving for omega, Initial residual = 3.00369e-05, Final residual = 8.49859e-06, No Iterations 3
smoothSolver:  Solving for k, Initial residual = 0.00587355, Final residual = 0.000501241, No Iterations 6
ExecutionTime = 0.270301 s  ClockTime = 0 s

Time = 87s

smoothSolver:  Solving for Ux, Initial residual = 0.00411108, Final residual = 0.000392672, No Iterations 5
smoothSolver:  Solving for Uy, Initial residual = 0.0099341, Final residual = 0.000821598, No Iterations 6
Pressure gradient source: uncorrected Ubar = 1.00027, pressure gradient = 0.289296
GAMG:  Solving for p, Initial residual = 0.00125711, Final residual = 0.000115003, No Iterations 14
time step continuity errors : sum local = 3.36503e-06, global = -8.13575e-19, cumulative = 1.54081e-18
Pressure gradient source: uncorrected Ubar = 1.00001, pressure gradient = 0.533292
smoothSolver:  Solving for omega, Initial residual = 2.97491e-05, Final residual = 8.42952e-06, No Iterations 3
smoothSolver:  Solving for k, Initial residual = 0.00584931, Final residual = 0.000499183, No Iterations 6
ExecutionTime = 0.273304 s  ClockTime = 0 s

Time = 88s

smoothSolver:  Solving for Ux, Initial residual = 0.00408621, Final residual = 0.000391846, No Iterations 5
smoothSolver:  Solving for Uy, Initial residual = 0.00997855, Final residual = 0.000825093, No Iterations 6
Pressure gradient source: uncorrected Ubar = 1.00027, pressure gradient = 0.275231
GAMG:  Solving for p, Initial residual = 0.00119974, Final residual = 0.000107562, No Iterations 18
time step continuity errors : sum local = 3.1775e-06, global = -8.66621e-18, cumulative = -7.1254e-18
Pressure gradient source: uncorrected Ubar = 1.00001, pressure gradient = 0.519425
smoothSolver:  Solving for omega, Initial residual = 2.94422e-05, Final residual = 8.32632e-06, No Iterations 3
smoothSolver:  Solving for k, Initial residual = 0.00582154, Final residual = 0.000497456, No Iterations 6
ExecutionTime = 0.276461 s  ClockTime = 0 s

Time = 89s

smoothSolver:  Solving for Ux, Initial residual = 0.00406503, Final residual = 0.000391104, No Iterations 5
smoothSolver:  Solving for Uy, Initial residual = 0.00979382, Final residual = 0.000810142, No Iterations 6
Pressure gradient source: uncorrected Ubar = 1.00027, pressure gradient = 0.262001
[...]
smoothSolver:  Solving for k, Initial residual = 8.38189e-06, Final residual = 8.38189e-06, No Iterations 0
ExecutionTime = 7.95412 s  ClockTime = 8 s

Time = 2987s

smoothSolver:  Solving for Ux, Initial residual = 4.92729e-06, Final residual = 4.92729e-06, No Iterations 0
smoothSolver:  Solving for Uy, Initial residual = 0.000114817, Final residual = 9.61347e-06, No Iterations 5
Pressure gradient source: uncorrected Ubar = 1, pressure gradient = 0.00667555
GAMG:  Solving for p, Initial residual = 1.18389e-05, Final residual = 1.16366e-06, No Iterations 16
time step continuity errors : sum local = 2.59703e-12, global = 2.4562e-18, cumulative = 7.68476e-17
Pressure gradient source: uncorrected Ubar = 1, pressure gradient = 0.00667555
smoothSolver:  Solving for omega, Initial residual = 2.81932e-06, Final residual = 2.81932e-06, No Iterations 0
smoothSolver:  Solving for k, Initial residual = 8.35078e-06, Final residual = 8.35078e-06, No Iterations 0
ExecutionTime = 7.95702 s  ClockTime = 8 s

Time = 2988s

smoothSolver:  Solving for Ux, Initial residual = 4.92317e-06, Final residual = 4.92317e-06, No Iterations 0
smoothSolver:  Solving for Uy, Initial residual = 0.000115486, Final residual = 9.5611e-06, No Iterations 5
Pressure gradient source: uncorrected Ubar = 1, pressure gradient = 0.00667555
GAMG:  Solving for p, Initial residual = 1.18543e-05, Final residual = 9.7565e-07, No Iterations 17
time step continuity errors : sum local = 2.21749e-12, global = 3.43446e-19, cumulative = 7.7191e-17
Pressure gradient source: uncorrected Ubar = 1, pressure gradient = 0.00667555
smoothSolver:  Solving for omega, Initial residual = 2.81931e-06, Final residual = 2.81931e-06, No Iterations 0
smoothSolver:  Solving for k, Initial residual = 8.3197e-06, Final residual = 8.3197e-06, No Iterations 0
ExecutionTime = 7.95998 s  ClockTime = 8 s

Time = 2989s

smoothSolver:  Solving for Ux, Initial residual = 4.91906e-06, Final residual = 4.91906e-06, No Iterations 0
smoothSolver:  Solving for Uy, Initial residual = 0.000116108, Final residual = 9.53227e-06, No Iterations 5
Pressure gradient source: uncorrected Ubar = 1, pressure gradient = 0.00667555
GAMG:  Solving for p, Initial residual = 1.15853e-05, Final residual = 9.97155e-07, No Iterations 17
time step continuity errors : sum local = 2.26366e-12, global = -2.87411e-18, cumulative = 7.43169e-17
Pressure gradient source: uncorrected Ubar = 1, pressure gradient = 0.00667556
smoothSolver:  Solving for omega, Initial residual = 2.8193e-06, Final residual = 2.8193e-06, No Iterations 0
smoothSolver:  Solving for k, Initial residual = 8.28865e-06, Final residual = 8.28865e-06, No Iterations 0
ExecutionTime = 7.96305 s  ClockTime = 8 s

Time = 2990s

smoothSolver:  Solving for Ux, Initial residual = 4.91494e-06, Final residual = 4.91494e-06, No Iterations 0
smoothSolver:  Solving for Uy, Initial residual = 0.00011655, Final residual = 9.46977e-06, No Iterations 5
Pressure gradient source: uncorrected Ubar = 1, pressure gradient = 0.00667556
GAMG:  Solving for p, Initial residual = 1.14422e-05, Final residual = 1.01975e-06, No Iterations 17
time step continuity errors : sum local = 2.31532e-12, global = -8.19576e-19, cumulative = 7.34973e-17
Pressure gradient source: uncorrected Ubar = 1, pressure gradient = 0.00667556
smoothSolver:  Solving for omega, Initial residual = 2.81929e-06, Final residual = 2.81929e-06, No Iterations 0
smoothSolver:  Solving for k, Initial residual = 8.25762e-06, Final residual = 8.25762e-06, No Iterations 0
ExecutionTime = 7.96607 s  ClockTime = 8 s

Time = 2991s

smoothSolver:  Solving for Ux, Initial residual = 4.91082e-06, Final residual = 4.91082e-06, No Iterations 0
smoothSolver:  Solving for Uy, Initial residual = 0.000116799, Final residual = 9.4068e-06, No Iterations 5
Pressure gradient source: uncorrected Ubar = 1, pressure gradient = 0.00667556
GAMG:  Solving for p, Initial residual = 1.13778e-05, Final residual = 1.04232e-06, No Iterations 17
time step continuity errors : sum local = 2.36691e-12, global = -9.59204e-18, cumulative = 6.39053e-17
Pressure gradient source: uncorrected Ubar = 1, pressure gradient = 0.00667556
smoothSolver:  Solving for omega, Initial residual = 2.81929e-06, Final residual = 2.81929e-06, No Iterations 0
smoothSolver:  Solving for k, Initial residual = 8.22661e-06, Final residual = 8.22661e-06, No Iterations 0
ExecutionTime = 7.96903 s  ClockTime = 8 s

Time = 2992s

smoothSolver:  Solving for Ux, Initial residual = 4.90669e-06, Final residual = 4.90669e-06, No Iterations 0
smoothSolver:  Solving for Uy, Initial residual = 0.000116927, Final residual = 9.34667e-06, No Iterations 5
Pressure gradient source: uncorrected Ubar = 1, pressure gradient = 0.00667556
GAMG:  Solving for p, Initial residual = 1.13372e-05, Final residual = 1.06481e-06, No Iterations 17
time step continuity errors : sum local = 2.41777e-12, global = -3.65606e-18, cumulative = 6.02492e-17
Pressure gradient source: uncorrected Ubar = 1, pressure gradient = 0.00667556
smoothSolver:  Solving for omega, Initial residual = 2.81928e-06, Final residual = 2.81928e-06, No Iterations 0
smoothSolver:  Solving for k, Initial residual = 8.19563e-06, Final residual = 8.19563e-06, No Iterations 0
ExecutionTime = 7.97199 s  ClockTime = 8 s

Time = 2993s

smoothSolver:  Solving for Ux, Initial residual = 4.90257e-06, Final residual = 4.90257e-06, No Iterations 0
smoothSolver:  Solving for Uy, Initial residual = 0.000116893, Final residual = 9.28603e-06, No Iterations 5
Pressure gradient source: uncorrected Ubar = 1, pressure gradient = 0.00667556
GAMG:  Solving for p, Initial residual = 1.13228e-05, Final residual = 1.08715e-06, No Iterations 17
time step continuity errors : sum local = 2.46778e-12, global = -5.66242e-18, cumulative = 5.45868e-17
Pressure gradient source: uncorrected Ubar = 1, pressure gradient = 0.00667556
smoothSolver:  Solving for omega, Initial residual = 2.81927e-06, Final residual = 2.81927e-06, No Iterations 0
smoothSolver:  Solving for k, Initial residual = 8.16468e-06, Final residual = 8.16468e-06, No Iterations 0
ExecutionTime = 7.97497 s  ClockTime = 8 s

Time = 2994s

smoothSolver:  Solving for Ux, Initial residual = 4.89844e-06, Final residual = 4.89844e-06, No Iterations 0
smoothSolver:  Solving for Uy, Initial residual = 0.000116697, Final residual = 9.22212e-06, No Iterations 5
Pressure gradient source: uncorrected Ubar = 1, pressure gradient = 0.00667556
GAMG:  Solving for p, Initial residual = 1.13547e-05, Final residual = 1.10908e-06, No Iterations 17
time step continuity errors : sum local = 2.51663e-12, global = -4.61557e-18, cumulative = 4.99712e-17
Pressure gradient source: uncorrected Ubar = 1, pressure gradient = 0.00667557
smoothSolver:  Solving for omega, Initial residual = 2.81926e-06, Final residual = 2.81926e-06, No Iterations 0
smoothSolver:  Solving for k, Initial residual = 8.13375e-06, Final residual = 8.13375e-06, No Iterations 0
ExecutionTime = 7.97809 s  ClockTime = 8 s

Time = 2995s

smoothSolver:  Solving for Ux, Initial residual = 4.89431e-06, Final residual = 4.89431e-06, No Iterations 0
smoothSolver:  Solving for Uy, Initial residual = 0.000116327, Final residual = 9.15388e-06, No Iterations 5
Pressure gradient source: uncorrected Ubar = 1, pressure gradient = 0.00667557
GAMG:  Solving for p, Initial residual = 1.13908e-05, Final residual = 1.13029e-06, No Iterations 17
time step continuity errors : sum local = 2.56368e-12, global = 3.44427e-18, cumulative = 5.34155e-17
Pressure gradient source: uncorrected Ubar = 1, pressure gradient = 0.00667557
smoothSolver:  Solving for omega, Initial residual = 2.81925e-06, Final residual = 2.81925e-06, No Iterations 0
smoothSolver:  Solving for k, Initial residual = 8.10285e-06, Final residual = 8.10285e-06, No Iterations 0
ExecutionTime = 7.98156 s  ClockTime = 8 s

Time = 2996s

smoothSolver:  Solving for Ux, Initial residual = 4.89018e-06, Final residual = 4.89018e-06, No Iterations 0
smoothSolver:  Solving for Uy, Initial residual = 0.000115792, Final residual = 9.0818e-06, No Iterations 5
Pressure gradient source: uncorrected Ubar = 1, pressure gradient = 0.00667557
GAMG:  Solving for p, Initial residual = 1.14125e-05, Final residual = 1.10814e-06, No Iterations 18
time step continuity errors : sum local = 2.49097e-12, global = 5.2685e-18, cumulative = 5.8684e-17
Pressure gradient source: uncorrected Ubar = 1, pressure gradient = 0.00667557
smoothSolver:  Solving for omega, Initial residual = 2.81925e-06, Final residual = 2.81925e-06, No Iterations 0
smoothSolver:  Solving for k, Initial residual = 8.07198e-06, Final residual = 8.07198e-06, No Iterations 0
ExecutionTime = 7.98485 s  ClockTime = 8 s

Time = 2997s

smoothSolver:  Solving for Ux, Initial residual = 4.88605e-06, Final residual = 4.88605e-06, No Iterations 0
smoothSolver:  Solving for Uy, Initial residual = 0.000115392, Final residual = 9.04391e-06, No Iterations 5
Pressure gradient source: uncorrected Ubar = 1, pressure gradient = 0.00667557
GAMG:  Solving for p, Initial residual = 1.1544e-05, Final residual = 1.14122e-06, No Iterations 17
time step continuity errors : sum local = 2.58316e-12, global = 4.3947e-18, cumulative = 6.30787e-17
Pressure gradient source: uncorrected Ubar = 1, pressure gradient = 0.00667557
smoothSolver:  Solving for omega, Initial residual = 2.81924e-06, Final residual = 2.81924e-06, No Iterations 0
smoothSolver:  Solving for k, Initial residual = 8.04113e-06, Final residual = 8.04113e-06, No Iterations 0
ExecutionTime = 7.98788 s  ClockTime = 8 s

Time = 2998s

smoothSolver:  Solving for Ux, Initial residual = 4.88191e-06, Final residual = 4.88191e-06, No Iterations 0
smoothSolver:  Solving for Uy, Initial residual = 0.000114279, Final residual = 8.91822e-06, No Iterations 5
Pressure gradient source: uncorrected Ubar = 1, pressure gradient = 0.00667557
GAMG:  Solving for p, Initial residual = 1.14618e-05, Final residual = 1.13069e-06, No Iterations 18
time step continuity errors : sum local = 2.53953e-12, global = 4.8355e-18, cumulative = 6.79142e-17
Pressure gradient source: uncorrected Ubar = 1, pressure gradient = 0.00667557
smoothSolver:  Solving for omega, Initial residual = 2.81923e-06, Final residual = 2.81923e-06, No Iterations 0
smoothSolver:  Solving for k, Initial residual = 8.01031e-06, Final residual = 8.01031e-06, No Iterations 0
ExecutionTime = 7.9909 s  ClockTime = 8 s

Time = 2999s

smoothSolver:  Solving for Ux, Initial residual = 4.87778e-06, Final residual = 4.87778e-06, No Iterations 0
smoothSolver:  Solving for Uy, Initial residual = 0.000113456, Final residual = 8.86566e-06, No Iterations 5
Pressure gradient source: uncorrected Ubar = 1, pressure gradient = 0.00667557
GAMG:  Solving for p, Initial residual = 1.15423e-05, Final residual = 1.12401e-06, No Iterations 18
time step continuity errors : sum local = 2.52191e-12, global = -8.84641e-18, cumulative = 5.90678e-17
Pressure gradient source: uncorrected Ubar = 1, pressure gradient = 0.00667558
smoothSolver:  Solving for omega, Initial residual = 2.81922e-06, Final residual = 2.81922e-06, No Iterations 0
smoothSolver:  Solving for k, Initial residual = 7.97951e-06, Final residual = 7.97951e-06, No Iterations 0
ExecutionTime = 7.99399 s  ClockTime = 8 s

Time = 3000s

smoothSolver:  Solving for Ux, Initial residual = 4.87364e-06, Final residual = 4.87364e-06, No Iterations 0
smoothSolver:  Solving for Uy, Initial residual = 0.000112406, Final residual = 8.77601e-06, No Iterations 5
Pressure gradient source: uncorrected Ubar = 1, pressure gradient = 0.00667558
GAMG:  Solving for p, Initial residual = 1.15434e-05, Final residual = 1.13979e-06, No Iterations 18
time step continuity errors : sum local = 2.54859e-12, global = -3.67331e-18, cumulative = 5.53945e-17
Pressure gradient source: uncorrected Ubar = 1, pressure gradient = 0.00667558
smoothSolver:  Solving for omega, Initial residual = 2.81921e-06, Final residual = 2.81921e-06, No Iterations 0
smoothSolver:  Solving for k, Initial residual = 7.94874e-06, Final residual = 7.94874e-06, No Iterations 0
ExecutionTime = 7.997 s  ClockTime = 8 s

Time = 3001s

smoothSolver:  Solving for Ux, Initial residual = 4.8695e-06, Final residual = 4.8695e-06, No Iterations 0
smoothSolver:  Solving for Uy, Initial residual = 0.00011114, Final residual = 8.67906e-06, No Iterations 5
Pressure gradient source: uncorrected Ubar = 1, pressure gradient = 0.00667558
GAMG:  Solving for p, Initial residual = 1.15253e-05, Final residual = 1.14683e-06, No Iterations 18
time step continuity errors : sum local = 2.56341e-12, global = 1.42656e-18, cumulative = 5.68211e-17
Pressure gradient source: uncorrected Ubar = 1, pressure gradient = 0.00667558
smoothSolver:  Solving for omega, Initial residual = 2.81921e-06, Final residual = 2.81921e-06, No Iterations 0
smoothSolver:  Solving for k, Initial residual = 7.91799e-06, Final residual = 7.91799e-06, No Iterations 0
ExecutionTime = 8 s  ClockTime = 8 s

Time = 3002s

smoothSolver:  Solving for Ux, Initial residual = 4.86536e-06, Final residual = 4.86536e-06, No Iterations 0
smoothSolver:  Solving for Uy, Initial residual = 0.000109796, Final residual = 8.58069e-06, No Iterations 5
Pressure gradient source: uncorrected Ubar = 1, pressure gradient = 0.00667558
GAMG:  Solving for p, Initial residual = 1.1486e-05, Final residual = 9.39937e-07, No Iterations 19
time step continuity errors : sum local = 2.14174e-12, global = -2.12948e-18, cumulative = 5.46916e-17
Pressure gradient source: uncorrected Ubar = 1, pressure gradient = 0.00667558
smoothSolver:  Solving for omega, Initial residual = 2.8192e-06, Final residual = 2.8192e-06, No Iterations 0
smoothSolver:  Solving for k, Initial residual = 7.88727e-06, Final residual = 7.88727e-06, No Iterations 0
ExecutionTime = 8.00307 s  ClockTime = 8 s

Time = 3003s

smoothSolver:  Solving for Ux, Initial residual = 4.86122e-06, Final residual = 4.86122e-06, No Iterations 0
smoothSolver:  Solving for Uy, Initial residual = 0.000108543, Final residual = 8.50819e-06, No Iterations 5
Pressure gradient source: uncorrected Ubar = 1, pressure gradient = 0.00667558
GAMG:  Solving for p, Initial residual = 1.12814e-05, Final residual = 9.43789e-07, No Iterations 19
time step continuity errors : sum local = 2.14779e-12, global = 5.54637e-18, cumulative = 6.02379e-17
Pressure gradient source: uncorrected Ubar = 1, pressure gradient = 0.00667558
smoothSolver:  Solving for omega, Initial residual = 2.81919e-06, Final residual = 2.81919e-06, No Iterations 0
smoothSolver:  Solving for k, Initial residual = 7.85658e-06, Final residual = 7.85658e-06, No Iterations 0
ExecutionTime = 8.00613 s  ClockTime = 8 s

Time = 3004s

smoothSolver:  Solving for Ux, Initial residual = 4.85707e-06, Final residual = 4.85707e-06, No Iterations 0
smoothSolver:  Solving for Uy, Initial residual = 0.000107182, Final residual = 8.40463e-06, No Iterations 5
Pressure gradient source: uncorrected Ubar = 1, pressure gradient = 0.00667558
GAMG:  Solving for p, Initial residual = 1.11183e-05, Final residual = 9.46401e-07, No Iterations 19
time step continuity errors : sum local = 2.15374e-12, global = -9.50948e-18, cumulative = 5.07285e-17
Pressure gradient source: uncorrected Ubar = 1, pressure gradient = 0.00667559
smoothSolver:  Solving for omega, Initial residual = 2.81918e-06, Final residual = 2.81918e-06, No Iterations 0
smoothSolver:  Solving for k, Initial residual = 7.82591e-06, Final residual = 7.82591e-06, No Iterations 0
ExecutionTime = 8.00918 s  ClockTime = 8 s

Time = 3005s

smoothSolver:  Solving for Ux, Initial residual = 4.85293e-06, Final residual = 4.85293e-06, No Iterations 0
smoothSolver:  Solving for Uy, Initial residual = 0.000105737, Final residual = 8.30433e-06, No Iterations 5
Pressure gradient source: uncorrected Ubar = 1, pressure gradient = 0.00667559
GAMG:  Solving for p, Initial residual = 1.10001e-05, Final residual = 9.47078e-07, No Iterations 19
time step continuity errors : sum local = 2.15532e-12, global = -4.4335e-18, cumulative = 4.6295e-17
Pressure gradient source: uncorrected Ubar = 1, pressure gradient = 0.00667559
smoothSolver:  Solving for omega, Initial residual = 2.81918e-06, Final residual = 2.81918e-06, No Iterations 0
smoothSolver:  Solving for k, Initial residual = 7.79527e-06, Final residual = 7.79527e-06, No Iterations 0
ExecutionTime = 8.01225 s  ClockTime = 8 s

Time = 3006s

smoothSolver:  Solving for Ux, Initial residual = 4.84878e-06, Final residual = 4.84878e-06, No Iterations 0
smoothSolver:  Solving for Uy, Initial residual = 0.000104295, Final residual = 8.20801e-06, No Iterations 5
Pressure gradient source: uncorrected Ubar = 1, pressure gradient = 0.00667559
GAMG:  Solving for p, Initial residual = 1.08976e-05, Final residual = 9.45998e-07, No Iterations 19
time step continuity errors : sum local = 2.15263e-12, global = -1.02637e-17, cumulative = 3.60313e-17
Pressure gradient source: uncorrected Ubar = 1, pressure gradient = 0.00667559
smoothSolver:  Solving for omega, Initial residual = 2.81917e-06, Final residual = 2.81917e-06, No Iterations 0
smoothSolver:  Solving for k, Initial residual = 7.76465e-06, Final residual = 7.76465e-06, No Iterations 0
ExecutionTime = 8.01535 s  ClockTime = 8 s

Time = 3007s

smoothSolver:  Solving for Ux, Initial residual = 4.84463e-06, Final residual = 4.84463e-06, No Iterations 0
smoothSolver:  Solving for Uy, Initial residual = 0.000102842, Final residual = 8.11354e-06, No Iterations 5
Pressure gradient source: uncorrected Ubar = 1, pressure gradient = 0.00667559
GAMG:  Solving for p, Initial residual = 1.07949e-05, Final residual = 9.43333e-07, No Iterations 19
time step continuity errors : sum local = 2.14612e-12, global = -2.59455e-18, cumulative = 3.34367e-17
Pressure gradient source: uncorrected Ubar = 1, pressure gradient = 0.00667559
smoothSolver:  Solving for omega, Initial residual = 2.81916e-06, Final residual = 2.81916e-06, No Iterations 0
smoothSolver:  Solving for k, Initial residual = 7.73406e-06, Final residual = 7.73406e-06, No Iterations 0
ExecutionTime = 8.0184 s  ClockTime = 8 s

Time = 3008s

smoothSolver:  Solving for Ux, Initial residual = 4.84048e-06, Final residual = 4.84048e-06, No Iterations 0
smoothSolver:  Solving for Uy, Initial residual = 0.000101372, Final residual = 8.01908e-06, No Iterations 5
Pressure gradient source: uncorrected Ubar = 1, pressure gradient = 0.00667559
GAMG:  Solving for p, Initial residual = 1.06888e-05, Final residual = 9.39115e-07, No Iterations 19
time step continuity errors : sum local = 2.13607e-12, global = 1.59783e-18, cumulative = 3.50346e-17
Pressure gradient source: uncorrected Ubar = 1, pressure gradient = 0.00667559
smoothSolver:  Solving for omega, Initial residual = 2.81915e-06, Final residual = 2.81915e-06, No Iterations 0
smoothSolver:  Solving for k, Initial residual = 7.7035e-06, Final residual = 7.7035e-06, No Iterations 0
ExecutionTime = 8.02146 s  ClockTime = 8 s

Time = 3009s

smoothSolver:  Solving for Ux, Initial residual = 4.83633e-06, Final residual = 4.83633e-06, No Iterations 0
smoothSolver:  Solving for Uy, Initial residual = 9.98882e-05, Final residual = 7.92415e-06, No Iterations 5
Pressure gradient source: uncorrected Ubar = 1, pressure gradient = 0.00667559
GAMG:  Solving for p, Initial residual = 1.05785e-05, Final residual = 9.33317e-07, No Iterations 19
time step continuity errors : sum local = 2.12244e-12, global = -1.82418e-18, cumulative = 3.32104e-17
Pressure gradient source: uncorrected Ubar = 1, pressure gradient = 0.0066756
smoothSolver:  Solving for omega, Initial residual = 2.81914e-06, Final residual = 2.81914e-06, No Iterations 0
smoothSolver:  Solving for k, Initial residual = 7.67296e-06, Final residual = 7.67296e-06, No Iterations 0
ExecutionTime = 8.02451 s  ClockTime = 8 s


SIMPLE solution converged in 3009 iterations

End

