/*---------------------------------------------------------------------------*\
  =========                 |
  \\      /  F ield         | OpenFOAM: The Open Source CFD Toolbox
   \\    /   O peration     | Website:  https://openfoam.org
    \\  /    A nd           | Version:  10
     \\/     M anipulation  |
\*---------------------------------------------------------------------------*/
Build  : 10-e450dce21ea5
Exec   : blockMesh
Date   : Feb 20 2023
Time   : 14:08:31
Host   : "w530-R9YK46P"
PID    : 18385
I/O    : uncollated
Case   : /home/jdmezazeron/gitDanielMezaZ/turbulenceVisualized/Data/SimulationFiles/K10_Re310
nProcs : 1
sigFpe : Enabling floating point exception trapping (FOAM_SIGFPE).
fileModificationChecking : Monitoring run-time modified files using timeStampMaster (fileModificationSkew 10)
allowSystemOperations : Allowing user-supplied system call operations

// * * * * * * * * * * * * * * * * * * * * * * * * * * * * * * * * * * * * * //
Create time

Deleting polyMesh directory
    "/home/jdmezazeron/gitDanielMezaZ/turbulenceVisualized/Data/SimulationFiles/K10_Re310/constant/polyMesh"
Reading "blockMeshDict"

Creating block mesh from
    "system/blockMeshDict"
Creating block edges
No non-planar block faces defined
Creating topology blocks
Creating topology patches

Creating block mesh topology

Check topology

	Basic statistics
		Number of internal faces : 0
		Number of boundary faces : 6
		Number of defined boundary faces : 6
		Number of undefined boundary faces : 0
	Checking patch -> block consistency

Creating block offsets
Creating merge list .

Creating polyMesh from blockMesh
Creating patches
Creating cells
Creating points with scale 1
    Block 0 cell size :
        i : 0.5
        j : 0.00461374 .. 0.018455
        k : 2

Detected cyclic patches; ordering boundary faces

Writing polyMesh
----------------
Mesh Information
----------------
  boundingBox: (-1 0 -1) (1 1 1)
  nPoints: 1010
  nCells: 400
  nFaces: 1704
  nInternalFaces: 696
----------------
Patches
----------------
  patch 0 (start: 696 size: 100) name: inlet
  patch 1 (start: 796 size: 100) name: outlet
  patch 2 (start: 896 size: 4) name: fixedWalls-bottom
  patch 3 (start: 900 size: 4) name: fixedWalls-top
  patch 4 (start: 904 size: 800) name: frontAndBack

End

/*---------------------------------------------------------------------------*\
  =========                 |
  \\      /  F ield         | OpenFOAM: The Open Source CFD Toolbox
   \\    /   O peration     | Website:  https://openfoam.org
    \\  /    A nd           | Version:  10
     \\/     M anipulation  |
\*---------------------------------------------------------------------------*/
Build  : 10-e450dce21ea5
Exec   : simpleFoam
Date   : Feb 20 2023
Time   : 14:08:31
Host   : "w530-R9YK46P"
PID    : 18386
I/O    : uncollated
Case   : /home/jdmezazeron/gitDanielMezaZ/turbulenceVisualized/Data/SimulationFiles/K10_Re310
nProcs : 1
sigFpe : Enabling floating point exception trapping (FOAM_SIGFPE).
fileModificationChecking : Monitoring run-time modified files using timeStampMaster (fileModificationSkew 10)
allowSystemOperations : Allowing user-supplied system call operations

// * * * * * * * * * * * * * * * * * * * * * * * * * * * * * * * * * * * * * //
Create time

Create mesh for time = 0


SIMPLE: Convergence criteria found
        U: tolerance 0.0001
        p: tolerance 0.01
        omega: tolerance 0.0001

Reading field p

Reading field U

Reading/calculating face flux field phi

Selecting viscosity model Newtonian
Selecting turbulence model type RAS
Selecting RAS turbulence model kOmegaSST
Selecting patchDistMethod meshWave
RAS
{
    RASModel        kOmegaSST;
    turbulence      on;
    printCoeffs     on;
    alphaK1         0.85;
    alphaK2         1;
    alphaOmega1     0.5;
    alphaOmega2     0.856;
    gamma1          0.555556;
    gamma2          0.44;
    beta1           0.075;
    beta2           0.0828;
    betaStar        0.09;
    a1              0.31;
    b1              1;
    c1              10;
    F3              false;
}

No MRF models present

--> FOAM Warning : Creating fvModels from "system/fvOptions" rather than constant/fvModels
No fvModels present
--> FOAM Warning : Creating fvConstraints from "system/fvOptions"

Selecting finite volume constraint type meanVelocityForce
    Name: momentumSource
    - selecting all cells
    - selected 400 cell(s) with volume 4
    Initial pressure gradient = 0


Starting time loop

turbulenceFields stressComponents: storing fields:
    R

Time = 1s

smoothSolver:  Solving for Ux, Initial residual = 0, Final residual = 0, No Iterations 0
smoothSolver:  Solving for Uy, Initial residual = 0, Final residual = 0, No Iterations 0
Pressure gradient source: uncorrected Ubar = 0, pressure gradient = 1674.1
GAMG:  Solving for p, Initial residual = 0.999996, Final residual = 0.0849118, No Iterations 4
time step continuity errors : sum local = 1.00578e-16, global = 1.67087e-18, cumulative = 1.67087e-18
Pressure gradient source: uncorrected Ubar = 0.884649, pressure gradient = 193.109
smoothSolver:  Solving for omega, Initial residual = 0.10738, Final residual = 0.0064882, No Iterations 3
smoothSolver:  Solving for k, Initial residual = 1, Final residual = 0.0495996, No Iterations 2
ExecutionTime = 0.014217 s  ClockTime = 1 s

Time = 2s

smoothSolver:  Solving for Ux, Initial residual = 0.95452, Final residual = 0.0819969, No Iterations 6
smoothSolver:  Solving for Uy, Initial residual = 1, Final residual = 0.0734098, No Iterations 6
Pressure gradient source: uncorrected Ubar = 15.0445, pressure gradient = -1447.92
GAMG:  Solving for p, Initial residual = 1, Final residual = 0.0952839, No Iterations 16
time step continuity errors : sum local = 0.00773872, global = 1.71846e-17, cumulative = 1.88555e-17
Pressure gradient source: uncorrected Ubar = 2.77433, pressure gradient = -14.2123
smoothSolver:  Solving for omega, Initial residual = 0.197949, Final residual = 0.000785915, No Iterations 1
smoothSolver:  Solving for k, Initial residual = 0.833247, Final residual = 0.0184885, No Iterations 1
ExecutionTime = 0.017489 s  ClockTime = 1 s

Time = 3s

smoothSolver:  Solving for Ux, Initial residual = 0.400073, Final residual = 0.0396792, No Iterations 5
smoothSolver:  Solving for Uy, Initial residual = 0.320826, Final residual = 0.029741, No Iterations 4
Pressure gradient source: uncorrected Ubar = 0.0789398, pressure gradient = 97.41
GAMG:  Solving for p, Initial residual = 0.211863, Final residual = 0.0194553, No Iterations 9
time step continuity errors : sum local = 0.00295168, global = 6.44084e-18, cumulative = 2.52963e-17
Pressure gradient source: uncorrected Ubar = 0.87696, pressure gradient = 0.698798
smoothSolver:  Solving for omega, Initial residual = 0.00928871, Final residual = 0.000183208, No Iterations 1
smoothSolver:  Solving for k, Initial residual = 0.0877873, Final residual = 0.0053771, No Iterations 2
ExecutionTime = 0.020289 s  ClockTime = 1 s

Time = 4s

smoothSolver:  Solving for Ux, Initial residual = 0.0509379, Final residual = 0.00407273, No Iterations 4
smoothSolver:  Solving for Uy, Initial residual = 0.125781, Final residual = 0.00862085, No Iterations 5
Pressure gradient source: uncorrected Ubar = 1.01986, pressure gradient = -1.59935
GAMG:  Solving for p, Initial residual = 0.16719, Final residual = 0.0153542, No Iterations 16
time step continuity errors : sum local = 0.00256951, global = -1.57853e-17, cumulative = 9.51101e-18
Pressure gradient source: uncorrected Ubar = 1.00244, pressure gradient = 0.416807
smoothSolver:  Solving for omega, Initial residual = 0.00799675, Final residual = 0.000138043, No Iterations 1
smoothSolver:  Solving for k, Initial residual = 0.032117, Final residual = 0.00216542, No Iterations 5
ExecutionTime = 0.023353 s  ClockTime = 1 s

Time = 5s

smoothSolver:  Solving for Ux, Initial residual = 0.0313507, Final residual = 0.00279897, No Iterations 4
smoothSolver:  Solving for Uy, Initial residual = 0.113508, Final residual = 0.00863829, No Iterations 5
Pressure gradient source: uncorrected Ubar = 0.988897, pressure gradient = 1.71817
GAMG:  Solving for p, Initial residual = 0.168039, Final residual = 0.0161829, No Iterations 9
time step continuity errors : sum local = 0.00244194, global = -7.04731e-19, cumulative = 8.80628e-18
Pressure gradient source: uncorrected Ubar = 0.998278, pressure gradient = 0.618665
smoothSolver:  Solving for omega, Initial residual = 0.0032738, Final residual = 8.20882e-05, No Iterations 1
smoothSolver:  Solving for k, Initial residual = 0.0458569, Final residual = 0.0040582, No Iterations 5
ExecutionTime = 0.026124 s  ClockTime = 1 s

Time = 6s

smoothSolver:  Solving for Ux, Initial residual = 0.0314488, Final residual = 0.00205758, No Iterations 5
smoothSolver:  Solving for Uy, Initial residual = 0.090614, Final residual = 0.00873043, No Iterations 4
Pressure gradient source: uncorrected Ubar = 0.993053, pressure gradient = 1.50637
GAMG:  Solving for p, Initial residual = 0.191521, Final residual = 0.0168085, No Iterations 16
time step continuity errors : sum local = 0.0017743, global = -1.6263e-18, cumulative = 7.17997e-18
Pressure gradient source: uncorrected Ubar = 0.999027, pressure gradient = 0.743003
smoothSolver:  Solving for omega, Initial residual = 0.00215765, Final residual = 5.42372e-05, No Iterations 1
smoothSolver:  Solving for k, Initial residual = 0.0812567, Final residual = 0.00798294, No Iterations 5
ExecutionTime = 0.029146 s  ClockTime = 1 s

Time = 7s

smoothSolver:  Solving for Ux, Initial residual = 0.0304925, Final residual = 0.00206617, No Iterations 5
smoothSolver:  Solving for Uy, Initial residual = 0.121629, Final residual = 0.00739686, No Iterations 5
Pressure gradient source: uncorrected Ubar = 0.996915, pressure gradient = 1.17695
GAMG:  Solving for p, Initial residual = 0.173279, Final residual = 0.0167441, No Iterations 14
time step continuity errors : sum local = 0.00123413, global = -2.15891e-17, cumulative = -1.44091e-17
Pressure gradient source: uncorrected Ubar = 0.999539, pressure gradient = 0.807851
smoothSolver:  Solving for omega, Initial residual = 0.00109191, Final residual = 3.16605e-05, No Iterations 1
smoothSolver:  Solving for k, Initial residual = 0.1129, Final residual = 0.0109034, No Iterations 5
ExecutionTime = 0.032118 s  ClockTime = 1 s

Time = 8s

smoothSolver:  Solving for Ux, Initial residual = 0.030121, Final residual = 0.00199961, No Iterations 5
smoothSolver:  Solving for Uy, Initial residual = 0.153092, Final residual = 0.0139797, No Iterations 4
Pressure gradient source: uncorrected Ubar = 0.998047, pressure gradient = 1.11239
GAMG:  Solving for p, Initial residual = 0.0909187, Final residual = 0.00894624, No Iterations 10
time step continuity errors : sum local = 0.000785147, global = -5.25107e-18, cumulative = -1.96602e-17
Pressure gradient source: uncorrected Ubar = 0.999703, pressure gradient = 0.854093
smoothSolver:  Solving for omega, Initial residual = 0.000642008, Final residual = 2.28404e-05, No Iterations 1
smoothSolver:  Solving for k, Initial residual = 0.135317, Final residual = 0.00875127, No Iterations 6
ExecutionTime = 0.034923 s  ClockTime = 1 s

Time = 9s

smoothSolver:  Solving for Ux, Initial residual = 0.0294245, Final residual = 0.00191223, No Iterations 5
smoothSolver:  Solving for Uy, Initial residual = 0.140426, Final residual = 0.012711, No Iterations 4
Pressure gradient source: uncorrected Ubar = 0.997898, pressure gradient = 1.22165
GAMG:  Solving for p, Initial residual = 0.0588288, Final residual = 0.00582625, No Iterations 6
time step continuity errors : sum local = 0.000459857, global = -2.98452e-18, cumulative = -2.26447e-17
Pressure gradient source: uncorrected Ubar = 0.999692, pressure gradient = 0.907916
smoothSolver:  Solving for omega, Initial residual = 0.000349746, Final residual = 1.51674e-05, No Iterations 1
smoothSolver:  Solving for k, Initial residual = 0.098256, Final residual = 0.00720043, No Iterations 6
ExecutionTime = 0.037553 s  ClockTime = 1 s

Time = 10s

smoothSolver:  Solving for Ux, Initial residual = 0.0268049, Final residual = 0.0026769, No Iterations 4
smoothSolver:  Solving for Uy, Initial residual = 0.122048, Final residual = 0.011064, No Iterations 4
Pressure gradient source: uncorrected Ubar = 1.00126, pressure gradient = 0.666386
GAMG:  Solving for p, Initial residual = 0.0607897, Final residual = 0.00514812, No Iterations 5
time step continuity errors : sum local = 0.000357313, global = -6.34946e-18, cumulative = -2.89942e-17
Pressure gradient source: uncorrected Ubar = 1.00012, pressure gradient = 0.885715
smoothSolver:  Solving for omega, Initial residual = 0.000199669, Final residual = 1.12259e-05, No Iterations 1
smoothSolver:  Solving for k, Initial residual = 0.0634542, Final residual = 0.00481942, No Iterations 6
ExecutionTime = 0.040076 s  ClockTime = 1 s

Time = 11s

smoothSolver:  Solving for Ux, Initial residual = 0.0241245, Final residual = 0.00156474, No Iterations 5
smoothSolver:  Solving for Uy, Initial residual = 0.0977331, Final residual = 0.00652885, No Iterations 5
Pressure gradient source: uncorrected Ubar = 1.00261, pressure gradient = 0.345055
GAMG:  Solving for p, Initial residual = 0.0722416, Final residual = 0.00692604, No Iterations 7
time step continuity errors : sum local = 0.000386012, global = -6.48494e-18, cumulative = -3.54791e-17
Pressure gradient source: uncorrected Ubar = 1.0003, pressure gradient = 0.824185
smoothSolver:  Solving for omega, Initial residual = 0.000112937, Final residual = 8.11485e-06, No Iterations 1
smoothSolver:  Solving for k, Initial residual = 0.044031, Final residual = 0.0033799, No Iterations 6
ExecutionTime = 0.042741 s  ClockTime = 1 s

Time = 12s

smoothSolver:  Solving for Ux, Initial residual = 0.0224127, Final residual = 0.00223929, No Iterations 4
smoothSolver:  Solving for Uy, Initial residual = 0.110454, Final residual = 0.00852479, No Iterations 5
Pressure gradient source: uncorrected Ubar = 1.00207, pressure gradient = 0.368349
GAMG:  Solving for p, Initial residual = 0.081997, Final residual = 0.00674272, No Iterations 4
time step continuity errors : sum local = 0.000283681, global = -3.68629e-18, cumulative = -3.91654e-17
Pressure gradient source: uncorrected Ubar = 1.00022, pressure gradient = 0.774878
smoothSolver:  Solving for omega, Initial residual = 6.54376e-05, Final residual = 6.54902e-06, No Iterations 1
smoothSolver:  Solving for k, Initial residual = 0.0333819, Final residual = 0.00260481, No Iterations 6
ExecutionTime = 0.045254 s  ClockTime = 1 s

Time = 13s

smoothSolver:  Solving for Ux, Initial residual = 0.0212243, Final residual = 0.00212193, No Iterations 4
smoothSolver:  Solving for Uy, Initial residual = 0.116126, Final residual = 0.00952737, No Iterations 5
Pressure gradient source: uncorrected Ubar = 1.0017, pressure gradient = 0.378509
GAMG:  Solving for p, Initial residual = 0.0782728, Final residual = 0.00715511, No Iterations 7
time step continuity errors : sum local = 0.000226237, global = 4.06576e-20, cumulative = -3.91247e-17
Pressure gradient source: uncorrected Ubar = 1.00017, pressure gradient = 0.73569
smoothSolver:  Solving for omega, Initial residual = 3.886e-05, Final residual = 5.25466e-06, No Iterations 1
smoothSolver:  Solving for k, Initial residual = 0.0261428, Final residual = 0.00204474, No Iterations 6
ExecutionTime = 0.047926 s  ClockTime = 1 s

Time = 14s

smoothSolver:  Solving for Ux, Initial residual = 0.0202882, Final residual = 0.00130327, No Iterations 5
smoothSolver:  Solving for Uy, Initial residual = 0.115019, Final residual = 0.00989244, No Iterations 5
Pressure gradient source: uncorrected Ubar = 1.00134, pressure gradient = 0.406014
GAMG:  Solving for p, Initial residual = 0.0883376, Final residual = 0.00791056, No Iterations 11
time step continuity errors : sum local = 0.000193751, global = 6.81025e-18, cumulative = -3.23145e-17
Pressure gradient source: uncorrected Ubar = 1.00012, pressure gradient = 0.705481
smoothSolver:  Solving for omega, Initial residual = 2.39528e-05, Final residual = 4.47276e-06, No Iterations 1
smoothSolver:  Solving for k, Initial residual = 0.0208996, Final residual = 0.00163903, No Iterations 6
ExecutionTime = 0.050758 s  ClockTime = 1 s

Time = 15s

smoothSolver:  Solving for Ux, Initial residual = 0.0194945, Final residual = 0.00125666, No Iterations 5
smoothSolver:  Solving for Uy, Initial residual = 0.101758, Final residual = 0.00898911, No Iterations 5
Pressure gradient source: uncorrected Ubar = 1.00138, pressure gradient = 0.348454
GAMG:  Solving for p, Initial residual = 0.085423, Final residual = 0.00834005, No Iterations 10
time step continuity errors : sum local = 0.000161705, global = 1.25158e-17, cumulative = -1.97987e-17
Pressure gradient source: uncorrected Ubar = 1.00013, pressure gradient = 0.672964
smoothSolver:  Solving for omega, Initial residual = 1.57083e-05, Final residual = 3.98582e-06, No Iterations 1
smoothSolver:  Solving for k, Initial residual = 0.0169536, Final residual = 0.00132964, No Iterations 6
ExecutionTime = 0.053561 s  ClockTime = 1 s

Time = 16s

smoothSolver:  Solving for Ux, Initial residual = 0.018761, Final residual = 0.00121549, No Iterations 5
smoothSolver:  Solving for Uy, Initial residual = 0.0979772, Final residual = 0.00883328, No Iterations 5
Pressure gradient source: uncorrected Ubar = 1.00135, pressure gradient = 0.306295
GAMG:  Solving for p, Initial residual = 0.0903553, Final residual = 0.00882602, No Iterations 5
time step continuity errors : sum local = 0.000143254, global = 8.04332e-18, cumulative = -1.17554e-17
Pressure gradient source: uncorrected Ubar = 1.00012, pressure gradient = 0.640069
smoothSolver:  Solving for omega, Initial residual = 1.10517e-05, Final residual = 3.77152e-06, No Iterations 1
smoothSolver:  Solving for k, Initial residual = 0.0137588, Final residual = 0.00109821, No Iterations 6
ExecutionTime = 0.056192 s  ClockTime = 1 s

Time = 17s

smoothSolver:  Solving for Ux, Initial residual = 0.0180609, Final residual = 0.00118211, No Iterations 5
smoothSolver:  Solving for Uy, Initial residual = 0.0946933, Final residual = 0.00854713, No Iterations 5
Pressure gradient source: uncorrected Ubar = 1.00134, pressure gradient = 0.258863
GAMG:  Solving for p, Initial residual = 0.0835688, Final residual = 0.0068597, No Iterations 9
time step continuity errors : sum local = 9.21314e-05, global = 1.06692e-17, cumulative = -1.08617e-18
Pressure gradient source: uncorrected Ubar = 1.00012, pressure gradient = 0.605959
smoothSolver:  Solving for omega, Initial residual = 8.53073e-06, Final residual = 8.53073e-06, No Iterations 0
smoothSolver:  Solving for k, Initial residual = 0.0111826, Final residual = 0.000882187, No Iterations 6
ExecutionTime = 0.058911 s  ClockTime = 1 s

Time = 18s

smoothSolver:  Solving for Ux, Initial residual = 0.0172627, Final residual = 0.00114274, No Iterations 5
smoothSolver:  Solving for Uy, Initial residual = 0.083177, Final residual = 0.00776495, No Iterations 5
Pressure gradient source: uncorrected Ubar = 1.00162, pressure gradient = 0.125596
GAMG:  Solving for p, Initial residual = 0.0745032, Final residual = 0.005835, No Iterations 5
time step continuity errors : sum local = 6.47711e-05, global = -1.31697e-17, cumulative = -1.42559e-17
Pressure gradient source: uncorrected Ubar = 1.00016, pressure gradient = 0.559757
smoothSolver:  Solving for omega, Initial residual = 9.241e-06, Final residual = 9.241e-06, No Iterations 0
smoothSolver:  Solving for k, Initial residual = 0.0095909, Final residual = 0.000715162, No Iterations 6
ExecutionTime = 0.061443 s  ClockTime = 1 s

Time = 19s

smoothSolver:  Solving for Ux, Initial residual = 0.0164967, Final residual = 0.00110662, No Iterations 5
smoothSolver:  Solving for Uy, Initial residual = 0.0709025, Final residual = 0.00680159, No Iterations 5
Pressure gradient source: uncorrected Ubar = 1.00135, pressure gradient = 0.145297
GAMG:  Solving for p, Initial residual = 0.0621775, Final residual = 0.00621689, No Iterations 6
time step continuity errors : sum local = 6.06461e-05, global = 4.00456e-18, cumulative = -1.02513e-17
Pressure gradient source: uncorrected Ubar = 1.00012, pressure gradient = 0.521553
smoothSolver:  Solving for omega, Initial residual = 9.82791e-06, Final residual = 9.82791e-06, No Iterations 0
smoothSolver:  Solving for k, Initial residual = 0.00912893, Final residual = 0.000628481, No Iterations 6
ExecutionTime = 0.06403 s  ClockTime = 1 s

Time = 20s

smoothSolver:  Solving for Ux, Initial residual = 0.0157182, Final residual = 0.0010699, No Iterations 5
smoothSolver:  Solving for Uy, Initial residual = 0.0608645, Final residual = 0.00399159, No Iterations 6
Pressure gradient source: uncorrected Ubar = 1.0013, pressure gradient = 0.107523
GAMG:  Solving for p, Initial residual = 0.0560462, Final residual = 0.00486788, No Iterations 7
time step continuity errors : sum local = 4.64214e-05, global = 8.83095e-18, cumulative = -1.42035e-18
Pressure gradient source: uncorrected Ubar = 1.00012, pressure gradient = 0.483213
smoothSolver:  Solving for omega, Initial residual = 1.0389e-05, Final residual = 4.66673e-06, No Iterations 1
smoothSolver:  Solving for k, Initial residual = 0.00883263, Final residual = 0.000611227, No Iterations 6
ExecutionTime = 0.066689 s  ClockTime = 1 s

Time = 21s

smoothSolver:  Solving for Ux, Initial residual = 0.0150246, Final residual = 0.00104053, No Iterations 5
smoothSolver:  Solving for Uy, Initial residual = 0.0515918, Final residual = 0.00353126, No Iterations 6
Pressure gradient source: uncorrected Ubar = 1.00102, pressure gradient = 0.146684
GAMG:  Solving for p, Initial residual = 0.0525557, Final residual = 0.0042968, No Iterations 7
time step continuity errors : sum local = 3.80643e-05, global = 1.72583e-18, cumulative = 3.05482e-19
Pressure gradient source: uncorrected Ubar = 1.00009, pressure gradient = 0.454509
smoothSolver:  Solving for omega, Initial residual = 8.38492e-06, Final residual = 8.38492e-06, No Iterations 0
smoothSolver:  Solving for k, Initial residual = 0.00880388, Final residual = 0.00060407, No Iterations 6
ExecutionTime = 0.069349 s  ClockTime = 1 s

Time = 22s

smoothSolver:  Solving for Ux, Initial residual = 0.0141819, Final residual = 0.00100769, No Iterations 5
smoothSolver:  Solving for Uy, Initial residual = 0.0469875, Final residual = 0.00334392, No Iterations 6
Pressure gradient source: uncorrected Ubar = 1.00124, pressure gradient = 0.0332993
GAMG:  Solving for p, Initial residual = 0.0534492, Final residual = 0.00459528, No Iterations 7
time step continuity errors : sum local = 3.88695e-05, global = -7.99165e-18, cumulative = -7.68617e-18
Pressure gradient source: uncorrected Ubar = 1.00012, pressure gradient = 0.415031
smoothSolver:  Solving for omega, Initial residual = 8.78277e-06, Final residual = 8.78277e-06, No Iterations 0
smoothSolver:  Solving for k, Initial residual = 0.00898934, Final residual = 0.000635229, No Iterations 6
ExecutionTime = 0.071976 s  ClockTime = 1 s

Time = 23s

smoothSolver:  Solving for Ux, Initial residual = 0.0133582, Final residual = 0.000973766, No Iterations 5
smoothSolver:  Solving for Uy, Initial residual = 0.0425612, Final residual = 0.00301389, No Iterations 6
Pressure gradient source: uncorrected Ubar = 1.00119, pressure gradient = -0.00221062
GAMG:  Solving for p, Initial residual = 0.0606462, Final residual = 0.00584317, No Iterations 6
time step continuity errors : sum local = 4.72647e-05, global = 3.27378e-18, cumulative = -4.41239e-18
Pressure gradient source: uncorrected Ubar = 1.00011, pressure gradient = 0.375783
smoothSolver:  Solving for omega, Initial residual = 9.13257e-06, Final residual = 9.13257e-06, No Iterations 0
smoothSolver:  Solving for k, Initial residual = 0.00920437, Final residual = 0.000652694, No Iterations 6
ExecutionTime = 0.07459 s  ClockTime = 1 s

Time = 24s

smoothSolver:  Solving for Ux, Initial residual = 0.0126723, Final residual = 0.000943936, No Iterations 5
smoothSolver:  Solving for Uy, Initial residual = 0.0391792, Final residual = 0.00275356, No Iterations 6
Pressure gradient source: uncorrected Ubar = 1.00111, pressure gradient = -0.0241825
GAMG:  Solving for p, Initial residual = 0.0623228, Final residual = 0.00619075, No Iterations 7
time step continuity errors : sum local = 4.83446e-05, global = 2.28868e-18, cumulative = -2.1237e-18
Pressure gradient source: uncorrected Ubar = 1.0001, pressure gradient = 0.338419
smoothSolver:  Solving for omega, Initial residual = 9.44801e-06, Final residual = 9.44801e-06, No Iterations 0
smoothSolver:  Solving for k, Initial residual = 0.00943054, Final residual = 0.000684389, No Iterations 6
ExecutionTime = 0.077219 s  ClockTime = 1 s

Time = 25s

smoothSolver:  Solving for Ux, Initial residual = 0.0119743, Final residual = 0.000912398, No Iterations 5
smoothSolver:  Solving for Uy, Initial residual = 0.0353848, Final residual = 0.00242255, No Iterations 6
Pressure gradient source: uncorrected Ubar = 1.00109, pressure gradient = -0.0618503
GAMG:  Solving for p, Initial residual = 0.0649955, Final residual = 0.00632239, No Iterations 7
time step continuity errors : sum local = 4.62389e-05, global = -6.84916e-18, cumulative = -8.97286e-18
Pressure gradient source: uncorrected Ubar = 1.0001, pressure gradient = 0.300708
smoothSolver:  Solving for omega, Initial residual = 9.74327e-06, Final residual = 9.74327e-06, No Iterations 0
smoothSolver:  Solving for k, Initial residual = 0.00967462, Final residual = 0.000703367, No Iterations 6
ExecutionTime = 0.079855 s  ClockTime = 1 s

Time = 26s

smoothSolver:  Solving for Ux, Initial residual = 0.0114916, Final residual = 0.000886562, No Iterations 5
smoothSolver:  Solving for Uy, Initial residual = 0.0327954, Final residual = 0.00219005, No Iterations 6
Pressure gradient source: uncorrected Ubar = 1.00103, pressure gradient = -0.0860512
GAMG:  Solving for p, Initial residual = 0.0638192, Final residual = 0.00562134, No Iterations 4
time step continuity errors : sum local = 3.85221e-05, global = -3.44488e-18, cumulative = -1.24177e-17
Pressure gradient source: uncorrected Ubar = 1.0001, pressure gradient = 0.264379
smoothSolver:  Solving for omega, Initial residual = 1.00334e-05, Final residual = 5.41804e-06, No Iterations 1
smoothSolver:  Solving for k, Initial residual = 0.00962878, Final residual = 0.000716035, No Iterations 6
ExecutionTime = 0.082384 s  ClockTime = 1 s

Time = 27s

smoothSolver:  Solving for Ux, Initial residual = 0.0110758, Final residual = 0.000865855, No Iterations 5
smoothSolver:  Solving for Uy, Initial residual = 0.0291901, Final residual = 0.00195983, No Iterations 6
Pressure gradient source: uncorrected Ubar = 1.00078, pressure gradient = -0.0339281
GAMG:  Solving for p, Initial residual = 0.0570238, Final residual = 0.00503979, No Iterations 6
time step continuity errors : sum local = 3.23032e-05, global = 3.77986e-18, cumulative = -8.63789e-18
Pressure gradient source: uncorrected Ubar = 1.00007, pressure gradient = 0.238974
smoothSolver:  Solving for omega, Initial residual = 8.7322e-06, Final residual = 8.7322e-06, No Iterations 0
smoothSolver:  Solving for k, Initial residual = 0.00970705, Final residual = 0.000722658, No Iterations 6
ExecutionTime = 0.084991 s  ClockTime = 1 s

Time = 28s

smoothSolver:  Solving for Ux, Initial residual = 0.0106485, Final residual = 0.00084333, No Iterations 5
smoothSolver:  Solving for Uy, Initial residual = 0.0273797, Final residual = 0.00186969, No Iterations 6
Pressure gradient source: uncorrected Ubar = 1.00091, pressure gradient = -0.11729
GAMG:  Solving for p, Initial residual = 0.05707, Final residual = 0.00560319, No Iterations 6
time step continuity errors : sum local = 3.26575e-05, global = 4.07977e-18, cumulative = -4.55812e-18
Pressure gradient source: uncorrected Ubar = 1.00008, pressure gradient = 0.205964
smoothSolver:  Solving for omega, Initial residual = 8.9905e-06, Final residual = 8.9905e-06, No Iterations 0
smoothSolver:  Solving for k, Initial residual = 0.0099646, Final residual = 0.000752443, No Iterations 6
ExecutionTime = 0.087602 s  ClockTime = 1 s

Time = 29s

smoothSolver:  Solving for Ux, Initial residual = 0.0101556, Final residual = 0.000819819, No Iterations 5
smoothSolver:  Solving for Uy, Initial residual = 0.0245255, Final residual = 0.00167601, No Iterations 6
Pressure gradient source: uncorrected Ubar = 1.00091, pressure gradient = -0.156932
GAMG:  Solving for p, Initial residual = 0.0565414, Final residual = 0.00539157, No Iterations 6
time step continuity errors : sum local = 2.92619e-05, global = -1.57945e-19, cumulative = -4.71606e-18
Pressure gradient source: uncorrected Ubar = 1.00009, pressure gradient = 0.171731
smoothSolver:  Solving for omega, Initial residual = 9.21895e-06, Final residual = 9.21895e-06, No Iterations 0
smoothSolver:  Solving for k, Initial residual = 0.0102052, Final residual = 0.0007703, No Iterations 6
ExecutionTime = 0.090192 s  ClockTime = 1 s

Time = 30s

smoothSolver:  Solving for Ux, Initial residual = 0.00981949, Final residual = 0.000802519, No Iterations 5
smoothSolver:  Solving for Uy, Initial residual = 0.0227917, Final residual = 0.00153498, No Iterations 6
Pressure gradient source: uncorrected Ubar = 1.00082, pressure gradient = -0.158832
GAMG:  Solving for p, Initial residual = 0.0522618, Final residual = 0.0045355, No Iterations 7
time step continuity errors : sum local = 2.35452e-05, global = 8.39936e-18, cumulative = 3.6833e-18
Pressure gradient source: uncorrected Ubar = 1.00008, pressure gradient = 0.141219
smoothSolver:  Solving for omega, Initial residual = 9.41259e-06, Final residual = 9.41259e-06, No Iterations 0
smoothSolver:  Solving for k, Initial residual = 0.0104797, Final residual = 0.000800582, No Iterations 6
ExecutionTime = 0.092822 s  ClockTime = 1 s

Time = 31s

smoothSolver:  Solving for Ux, Initial residual = 0.00938017, Final residual = 0.000783449, No Iterations 5
smoothSolver:  Solving for Uy, Initial residual = 0.0205403, Final residual = 0.00201533, No Iterations 5
Pressure gradient source: uncorrected Ubar = 1.00085, pressure gradient = -0.205557
GAMG:  Solving for p, Initial residual = 0.0529746, Final residual = 0.00451793, No Iterations 3
time step continuity errors : sum local = 2.18148e-05, global = 7.34417e-18, cumulative = 1.10275e-17
Pressure gradient source: uncorrected Ubar = 1.00008, pressure gradient = 0.108282
smoothSolver:  Solving for omega, Initial residual = 9.58749e-06, Final residual = 9.58749e-06, No Iterations 0
smoothSolver:  Solving for k, Initial residual = 0.010717, Final residual = 0.000818077, No Iterations 6
ExecutionTime = 0.09529 s  ClockTime = 1 s

Time = 32s

smoothSolver:  Solving for Ux, Initial residual = 0.00907078, Final residual = 0.000769616, No Iterations 5
smoothSolver:  Solving for Uy, Initial residual = 0.0184535, Final residual = 0.00128518, No Iterations 6
Pressure gradient source: uncorrected Ubar = 1.00077, pressure gradient = -0.209652
GAMG:  Solving for p, Initial residual = 0.0473896, Final residual = 0.00432795, No Iterations 6
time step continuity errors : sum local = 2.04108e-05, global = -8.8464e-18, cumulative = 2.18107e-18
Pressure gradient source: uncorrected Ubar = 1.00007, pressure gradient = 0.0786201
smoothSolver:  Solving for omega, Initial residual = 9.72854e-06, Final residual = 9.72854e-06, No Iterations 0
smoothSolver:  Solving for k, Initial residual = 0.0109733, Final residual = 0.000842324, No Iterations 6
ExecutionTime = 0.097879 s  ClockTime = 1 s

Time = 33s

smoothSolver:  Solving for Ux, Initial residual = 0.00874929, Final residual = 0.000756872, No Iterations 5
smoothSolver:  Solving for Uy, Initial residual = 0.016627, Final residual = 0.00109652, No Iterations 6
Pressure gradient source: uncorrected Ubar = 1.00076, pressure gradient = -0.236357
GAMG:  Solving for p, Initial residual = 0.0460983, Final residual = 0.00410586, No Iterations 6
time step continuity errors : sum local = 1.87621e-05, global = 1.6945e-18, cumulative = 3.87557e-18
Pressure gradient source: uncorrected Ubar = 1.00007, pressure gradient = 0.0489823
smoothSolver:  Solving for omega, Initial residual = 9.83929e-06, Final residual = 9.83929e-06, No Iterations 0
smoothSolver:  Solving for k, Initial residual = 0.011214, Final residual = 0.000854386, No Iterations 6
ExecutionTime = 0.100463 s  ClockTime = 1 s

Time = 34s

smoothSolver:  Solving for Ux, Initial residual = 0.00842295, Final residual = 0.000744475, No Iterations 5
smoothSolver:  Solving for Uy, Initial residual = 0.0156231, Final residual = 0.00103534, No Iterations 6
Pressure gradient source: uncorrected Ubar = 1.00076, pressure gradient = -0.267997
GAMG:  Solving for p, Initial residual = 0.0407094, Final residual = 0.00373931, No Iterations 7
time step continuity errors : sum local = 1.66617e-05, global = -3.93532e-18, cumulative = -5.97414e-20
Pressure gradient source: uncorrected Ubar = 1.00007, pressure gradient = 0.0187107
smoothSolver:  Solving for omega, Initial residual = 9.9175e-06, Final residual = 9.9175e-06, No Iterations 0
smoothSolver:  Solving for k, Initial residual = 0.0114413, Final residual = 0.000877214, No Iterations 6
ExecutionTime = 0.103143 s  ClockTime = 1 s

Time = 35s

smoothSolver:  Solving for Ux, Initial residual = 0.00818359, Final residual = 0.000736278, No Iterations 5
smoothSolver:  Solving for Uy, Initial residual = 0.0138857, Final residual = 0.00138447, No Iterations 5
Pressure gradient source: uncorrected Ubar = 1.00069, pressure gradient = -0.272537
GAMG:  Solving for p, Initial residual = 0.0370378, Final residual = 0.00359999, No Iterations 6
time step continuity errors : sum local = 1.56731e-05, global = 7.01132e-18, cumulative = 6.95157e-18
Pressure gradient source: uncorrected Ubar = 1.00007, pressure gradient = -0.0086661
smoothSolver:  Solving for omega, Initial residual = 9.99824e-06, Final residual = 9.99824e-06, No Iterations 0
smoothSolver:  Solving for k, Initial residual = 0.0116468, Final residual = 0.000889348, No Iterations 6
ExecutionTime = 0.105754 s  ClockTime = 1 s

Time = 36s

smoothSolver:  Solving for Ux, Initial residual = 0.00792306, Final residual = 0.000729909, No Iterations 5
smoothSolver:  Solving for Uy, Initial residual = 0.0127205, Final residual = 0.0008419, No Iterations 6
Pressure gradient source: uncorrected Ubar = 1.00069, pressure gradient = -0.298095
GAMG:  Solving for p, Initial residual = 0.0347649, Final residual = 0.0031616, No Iterations 7
time step continuity errors : sum local = 1.33273e-05, global = 1.54246e-18, cumulative = 8.49403e-18
Pressure gradient source: uncorrected Ubar = 1.00007, pressure gradient = -0.0361808
smoothSolver:  Solving for omega, Initial residual = 1.0067e-05, Final residual = 5.82957e-06, No Iterations 1
smoothSolver:  Solving for k, Initial residual = 0.0114429, Final residual = 0.000877545, No Iterations 6
ExecutionTime = 0.108398 s  ClockTime = 1 s

Time = 37s

smoothSolver:  Solving for Ux, Initial residual = 0.00774708, Final residual = 0.000726423, No Iterations 5
smoothSolver:  Solving for Uy, Initial residual = 0.0118675, Final residual = 0.00108188, No Iterations 5
Pressure gradient source: uncorrected Ubar = 1.0005, pressure gradient = -0.24637
GAMG:  Solving for p, Initial residual = 0.033388, Final residual = 0.00301087, No Iterations 6
time step continuity errors : sum local = 1.27072e-05, global = -2.96038e-19, cumulative = 8.19799e-18
Pressure gradient source: uncorrected Ubar = 1.00004, pressure gradient = -0.0536998
smoothSolver:  Solving for omega, Initial residual = 9.02715e-06, Final residual = 9.02715e-06, No Iterations 0
smoothSolver:  Solving for k, Initial residual = 0.0114581, Final residual = 0.000876272, No Iterations 6
ExecutionTime = 0.110984 s  ClockTime = 1 s

Time = 38s

smoothSolver:  Solving for Ux, Initial residual = 0.00755567, Final residual = 0.000720288, No Iterations 5
smoothSolver:  Solving for Uy, Initial residual = 0.0107031, Final residual = 0.000973437, No Iterations 5
Pressure gradient source: uncorrected Ubar = 1.00061, pressure gradient = -0.310635
GAMG:  Solving for p, Initial residual = 0.030465, Final residual = 0.0027047, No Iterations 7
time step continuity errors : sum local = 1.12328e-05, global = -1.01934e-17, cumulative = -1.9954e-18
Pressure gradient source: uncorrected Ubar = 1.00006, pressure gradient = -0.0776258
smoothSolver:  Solving for omega, Initial residual = 9.08739e-06, Final residual = 9.08739e-06, No Iterations 0
smoothSolver:  Solving for k, Initial residual = 0.0116577, Final residual = 0.000891212, No Iterations 6
ExecutionTime = 0.113639 s  ClockTime = 1 s

Time = 39s

smoothSolver:  Solving for Ux, Initial residual = 0.00736415, Final residual = 0.000716784, No Iterations 5
smoothSolver:  Solving for Uy, Initial residual = 0.0104414, Final residual = 0.000856142, No Iterations 5
Pressure gradient source: uncorrected Ubar = 1.00059, pressure gradient = -0.326865
GAMG:  Solving for p, Initial residual = 0.0283415, Final residual = 0.00270448, No Iterations 7
time step continuity errors : sum local = 1.0944e-05, global = 1.43979e-17, cumulative = 1.24025e-17
Pressure gradient source: uncorrected Ubar = 1.00005, pressure gradient = -0.100936
smoothSolver:  Solving for omega, Initial residual = 9.11057e-06, Final residual = 9.11057e-06, No Iterations 0
smoothSolver:  Solving for k, Initial residual = 0.0118598, Final residual = 0.000903619, No Iterations 6
ExecutionTime = 0.116269 s  ClockTime = 1 s

Time = 40s

smoothSolver:  Solving for Ux, Initial residual = 0.00716668, Final residual = 0.000711945, No Iterations 5
smoothSolver:  Solving for Uy, Initial residual = 0.0101784, Final residual = 0.000787507, No Iterations 5
Pressure gradient source: uncorrected Ubar = 1.00058, pressure gradient = -0.348303
GAMG:  Solving for p, Initial residual = 0.0284554, Final residual = 0.00264388, No Iterations 8
time step continuity errors : sum local = 1.05719e-05, global = -6.44374e-19, cumulative = 1.17581e-17
Pressure gradient source: uncorrected Ubar = 1.00006, pressure gradient = -0.124385
smoothSolver:  Solving for omega, Initial residual = 9.18083e-06, Final residual = 9.18083e-06, No Iterations 0
smoothSolver:  Solving for k, Initial residual = 0.0120088, Final residual = 0.000910884, No Iterations 6
ExecutionTime = 0.118939 s  ClockTime = 1 s

Time = 41s

smoothSolver:  Solving for Ux, Initial residual = 0.00694832, Final residual = 0.000465791, No Iterations 6
smoothSolver:  Solving for Uy, Initial residual = 0.009763, Final residual = 0.000685962, No Iterations 5
Pressure gradient source: uncorrected Ubar = 1.00051, pressure gradient = -0.339929
GAMG:  Solving for p, Initial residual = 0.028642, Final residual = 0.00260802, No Iterations 9
time step continuity errors : sum local = 1.01162e-05, global = -4.85118e-18, cumulative = 6.9069e-18
Pressure gradient source: uncorrected Ubar = 1.00005, pressure gradient = -0.145086
smoothSolver:  Solving for omega, Initial residual = 9.23463e-06, Final residual = 9.23463e-06, No Iterations 0
smoothSolver:  Solving for k, Initial residual = 0.0121705, Final residual = 0.000921865, No Iterations 6
ExecutionTime = 0.121833 s  ClockTime = 1 s

Time = 42s

smoothSolver:  Solving for Ux, Initial residual = 0.00680603, Final residual = 0.000464642, No Iterations 6
smoothSolver:  Solving for Uy, Initial residual = 0.00969646, Final residual = 0.000809478, No Iterations 5
Pressure gradient source: uncorrected Ubar = 1.00048, pressure gradient = -0.346537
GAMG:  Solving for p, Initial residual = 0.0289451, Final residual = 0.00266765, No Iterations 9
time step continuity errors : sum local = 1.01841e-05, global = -7.13638e-19, cumulative = 6.19326e-18
Pressure gradient source: uncorrected Ubar = 1.00005, pressure gradient = -0.164351
smoothSolver:  Solving for omega, Initial residual = 9.24569e-06, Final residual = 9.24569e-06, No Iterations 0
smoothSolver:  Solving for k, Initial residual = 0.0123154, Final residual = 0.000926998, No Iterations 6
ExecutionTime = 0.124611 s  ClockTime = 1 s

Time = 43s

smoothSolver:  Solving for Ux, Initial residual = 0.00662757, Final residual = 0.000461431, No Iterations 6
smoothSolver:  Solving for Uy, Initial residual = 0.00994066, Final residual = 0.000958012, No Iterations 5
Pressure gradient source: uncorrected Ubar = 1.0005, pressure gradient = -0.370524
GAMG:  Solving for p, Initial residual = 0.0289371, Final residual = 0.00284631, No Iterations 9
time step continuity errors : sum local = 1.08405e-05, global = -1.16932e-18, cumulative = 5.02394e-18
Pressure gradient source: uncorrected Ubar = 1.00005, pressure gradient = -0.18453
smoothSolver:  Solving for omega, Initial residual = 9.23453e-06, Final residual = 9.23453e-06, No Iterations 0
smoothSolver:  Solving for k, Initial residual = 0.0124439, Final residual = 0.000933706, No Iterations 6
ExecutionTime = 0.127338 s  ClockTime = 1 s

Time = 44s

smoothSolver:  Solving for Ux, Initial residual = 0.00646226, Final residual = 0.000459321, No Iterations 6
smoothSolver:  Solving for Uy, Initial residual = 0.00977013, Final residual = 0.000674043, No Iterations 6
Pressure gradient source: uncorrected Ubar = 1.00046, pressure gradient = -0.375163
GAMG:  Solving for p, Initial residual = 0.0297165, Final residual = 0.0029283, No Iterations 9
time step continuity errors : sum local = 1.12552e-05, global = -1.73516e-18, cumulative = 3.28878e-18
Pressure gradient source: uncorrected Ubar = 1.00005, pressure gradient = -0.203076
smoothSolver:  Solving for omega, Initial residual = 9.19835e-06, Final residual = 9.19835e-06, No Iterations 0
smoothSolver:  Solving for k, Initial residual = 0.0125445, Final residual = 0.000936911, No Iterations 6
ExecutionTime = 0.130086 s  ClockTime = 1 s

Time = 45s

smoothSolver:  Solving for Ux, Initial residual = 0.00627199, Final residual = 0.000454677, No Iterations 6
smoothSolver:  Solving for Uy, Initial residual = 0.0095516, Final residual = 0.000636493, No Iterations 6
Pressure gradient source: uncorrected Ubar = 1.00045, pressure gradient = -0.386954
GAMG:  Solving for p, Initial residual = 0.0304421, Final residual = 0.00259164, No Iterations 9
time step continuity errors : sum local = 9.60332e-06, global = 1.90604e-18, cumulative = 5.19482e-18
Pressure gradient source: uncorrected Ubar = 1.00004, pressure gradient = -0.221122
smoothSolver:  Solving for omega, Initial residual = 9.17472e-06, Final residual = 9.17472e-06, No Iterations 0
smoothSolver:  Solving for k, Initial residual = 0.0126297, Final residual = 0.000940088, No Iterations 6
ExecutionTime = 0.132829 s  ClockTime = 1 s

Time = 46s

smoothSolver:  Solving for Ux, Initial residual = 0.00614555, Final residual = 0.000452893, No Iterations 6
smoothSolver:  Solving for Uy, Initial residual = 0.0101668, Final residual = 0.000757937, No Iterations 6
Pressure gradient source: uncorrected Ubar = 1.00041, pressure gradient = -0.384278
GAMG:  Solving for p, Initial residual = 0.029941, Final residual = 0.00265019, No Iterations 9
time step continuity errors : sum local = 9.36343e-06, global = 3.8986e-19, cumulative = 5.58468e-18
Pressure gradient source: uncorrected Ubar = 1.00004, pressure gradient = -0.236873
smoothSolver:  Solving for omega, Initial residual = 9.14718e-06, Final residual = 9.14718e-06, No Iterations 0
smoothSolver:  Solving for k, Initial residual = 0.0127059, Final residual = 0.000942134, No Iterations 6
ExecutionTime = 0.135651 s  ClockTime = 1 s

Time = 47s

smoothSolver:  Solving for Ux, Initial residual = 0.00599192, Final residual = 0.00044946, No Iterations 6
smoothSolver:  Solving for Uy, Initial residual = 0.0108472, Final residual = 0.000831624, No Iterations 6
Pressure gradient source: uncorrected Ubar = 1.00041, pressure gradient = -0.398925
GAMG:  Solving for p, Initial residual = 0.0308654, Final residual = 0.00305398, No Iterations 8
time step continuity errors : sum local = 1.04944e-05, global = 4.6653e-21, cumulative = 5.58934e-18
Pressure gradient source: uncorrected Ubar = 1.00004, pressure gradient = -0.252819
smoothSolver:  Solving for omega, Initial residual = 9.12077e-06, Final residual = 9.12077e-06, No Iterations 0
smoothSolver:  Solving for k, Initial residual = 0.0127529, Final residual = 0.000942432, No Iterations 6
ExecutionTime = 0.138385 s  ClockTime = 1 s

Time = 48s

smoothSolver:  Solving for Ux, Initial residual = 0.00585248, Final residual = 0.00044669, No Iterations 6
smoothSolver:  Solving for Uy, Initial residual = 0.0110569, Final residual = 0.000876302, No Iterations 6
Pressure gradient source: uncorrected Ubar = 1.00037, pressure gradient = -0.397224
GAMG:  Solving for p, Initial residual = 0.0322097, Final residual = 0.00285508, No Iterations 11
time step continuity errors : sum local = 9.92302e-06, global = 3.12565e-18, cumulative = 8.71499e-18
Pressure gradient source: uncorrected Ubar = 1.00004, pressure gradient = -0.266833
smoothSolver:  Solving for omega, Initial residual = 9.06576e-06, Final residual = 9.06576e-06, No Iterations 0
smoothSolver:  Solving for k, Initial residual = 0.012769, Final residual = 0.000939759, No Iterations 6
ExecutionTime = 0.141495 s  ClockTime = 1 s

Time = 49s

smoothSolver:  Solving for Ux, Initial residual = 0.00568571, Final residual = 0.000441341, No Iterations 6
smoothSolver:  Solving for Uy, Initial residual = 0.0113374, Final residual = 0.000898744, No Iterations 6
Pressure gradient source: uncorrected Ubar = 1.00036, pressure gradient = -0.401372
GAMG:  Solving for p, Initial residual = 0.0344941, Final residual = 0.00327556, No Iterations 7
time step continuity errors : sum local = 1.14972e-05, global = 5.27278e-20, cumulative = 8.76772e-18
Pressure gradient source: uncorrected Ubar = 1.00003, pressure gradient = -0.279927
smoothSolver:  Solving for omega, Initial residual = 8.98501e-06, Final residual = 8.98501e-06, No Iterations 0
smoothSolver:  Solving for k, Initial residual = 0.0127514, Final residual = 0.000935002, No Iterations 6
ExecutionTime = 0.145088 s  ClockTime = 1 s

Time = 50s

smoothSolver:  Solving for Ux, Initial residual = 0.00553654, Final residual = 0.000436483, No Iterations 6
smoothSolver:  Solving for Uy, Initial residual = 0.0108313, Final residual = 0.000852186, No Iterations 6
Pressure gradient source: uncorrected Ubar = 1.00032, pressure gradient = -0.399368
GAMG:  Solving for p, Initial residual = 0.034707, Final residual = 0.00281006, No Iterations 9
time step continuity errors : sum local = 9.04648e-06, global = -5.67925e-18, cumulative = 3.08847e-18
Pressure gradient source: uncorrected Ubar = 1.00003, pressure gradient = -0.291417
smoothSolver:  Solving for omega, Initial residual = 8.94766e-06, Final residual = 8.94766e-06, No Iterations 0
smoothSolver:  Solving for k, Initial residual = 0.0126559, Final residual = 0.000926448, No Iterations 6
ExecutionTime = 0.148049 s  ClockTime = 1 s

Time = 51s

smoothSolver:  Solving for Ux, Initial residual = 0.00540815, Final residual = 0.00043246, No Iterations 6
smoothSolver:  Solving for Uy, Initial residual = 0.0123867, Final residual = 0.000994192, No Iterations 6
Pressure gradient source: uncorrected Ubar = 1.00029, pressure gradient = -0.39709
GAMG:  Solving for p, Initial residual = 0.0349911, Final residual = 0.00324139, No Iterations 7
time step continuity errors : sum local = 9.57278e-06, global = -6.81862e-19, cumulative = 2.40661e-18
Pressure gradient source: uncorrected Ubar = 1.00003, pressure gradient = -0.301443
smoothSolver:  Solving for omega, Initial residual = 8.92045e-06, Final residual = 8.92045e-06, No Iterations 0
smoothSolver:  Solving for k, Initial residual = 0.0124821, Final residual = 0.000911152, No Iterations 6
ExecutionTime = 0.150752 s  ClockTime = 1 s

Time = 52s

smoothSolver:  Solving for Ux, Initial residual = 0.00526658, Final residual = 0.000426955, No Iterations 6
smoothSolver:  Solving for Uy, Initial residual = 0.0130879, Final residual = 0.00106194, No Iterations 6
Pressure gradient source: uncorrected Ubar = 1.00028, pressure gradient = -0.398639
GAMG:  Solving for p, Initial residual = 0.0357794, Final residual = 0.00305412, No Iterations 7
time step continuity errors : sum local = 9.27964e-06, global = -6.17016e-18, cumulative = -3.76355e-18
Pressure gradient source: uncorrected Ubar = 1.00003, pressure gradient = -0.310682
smoothSolver:  Solving for omega, Initial residual = 8.8872e-06, Final residual = 8.8872e-06, No Iterations 0
smoothSolver:  Solving for k, Initial residual = 0.0122285, Final residual = 0.000892682, No Iterations 6
ExecutionTime = 0.153485 s  ClockTime = 1 s

Time = 53s

smoothSolver:  Solving for Ux, Initial residual = 0.00513264, Final residual = 0.00042176, No Iterations 6
smoothSolver:  Solving for Uy, Initial residual = 0.0137406, Final residual = 0.00112532, No Iterations 6
Pressure gradient source: uncorrected Ubar = 1.00023, pressure gradient = -0.388977
GAMG:  Solving for p, Initial residual = 0.0379775, Final residual = 0.00365634, No Iterations 8
time step continuity errors : sum local = 1.12984e-05, global = 9.7365e-18, cumulative = 5.97295e-18
Pressure gradient source: uncorrected Ubar = 1.00002, pressure gradient = -0.317735
smoothSolver:  Solving for omega, Initial residual = 8.82159e-06, Final residual = 8.82159e-06, No Iterations 0
smoothSolver:  Solving for k, Initial residual = 0.0119598, Final residual = 0.000870575, No Iterations 6
ExecutionTime = 0.156225 s  ClockTime = 1 s

Time = 54s

smoothSolver:  Solving for Ux, Initial residual = 0.00497905, Final residual = 0.00041423, No Iterations 6
smoothSolver:  Solving for Uy, Initial residual = 0.0137973, Final residual = 0.00113153, No Iterations 6
Pressure gradient source: uncorrected Ubar = 1.00021, pressure gradient = -0.385802
GAMG:  Solving for p, Initial residual = 0.0389026, Final residual = 0.00388183, No Iterations 10
time step continuity errors : sum local = 1.18062e-05, global = -5.42356e-18, cumulative = 5.49388e-19
Pressure gradient source: uncorrected Ubar = 1.00002, pressure gradient = -0.323744
smoothSolver:  Solving for omega, Initial residual = 8.75026e-06, Final residual = 8.75026e-06, No Iterations 0
smoothSolver:  Solving for k, Initial residual = 0.0116517, Final residual = 0.000848571, No Iterations 6
ExecutionTime = 0.158997 s  ClockTime = 1 s

Time = 55s

smoothSolver:  Solving for Ux, Initial residual = 0.00482805, Final residual = 0.000406041, No Iterations 6
smoothSolver:  Solving for Uy, Initial residual = 0.0128968, Final residual = 0.00105374, No Iterations 6
Pressure gradient source: uncorrected Ubar = 1.00017, pressure gradient = -0.378787
GAMG:  Solving for p, Initial residual = 0.0410188, Final residual = 0.00343818, No Iterations 9
time step continuity errors : sum local = 9.45549e-06, global = 3.45599e-18, cumulative = 4.00537e-18
Pressure gradient source: uncorrected Ubar = 1.00001, pressure gradient = -0.328315
smoothSolver:  Solving for omega, Initial residual = 8.71683e-06, Final residual = 8.71683e-06, No Iterations 0
smoothSolver:  Solving for k, Initial residual = 0.011307, Final residual = 0.000824568, No Iterations 6
ExecutionTime = 0.161735 s  ClockTime = 1 s

Time = 56s

smoothSolver:  Solving for Ux, Initial residual = 0.00471635, Final residual = 0.000399916, No Iterations 6
smoothSolver:  Solving for Uy, Initial residual = 0.0142607, Final residual = 0.00118087, No Iterations 6
Pressure gradient source: uncorrected Ubar = 1.00012, pressure gradient = -0.366425
GAMG:  Solving for p, Initial residual = 0.0416329, Final residual = 0.00415583, No Iterations 8
time step continuity errors : sum local = 1.06951e-05, global = -2.63793e-18, cumulative = 1.36745e-18
Pressure gradient source: uncorrected Ubar = 1.00001, pressure gradient = -0.330876
smoothSolver:  Solving for omega, Initial residual = 8.68692e-06, Final residual = 8.68692e-06, No Iterations 0
smoothSolver:  Solving for k, Initial residual = 0.0109616, Final residual = 0.000799364, No Iterations 6
ExecutionTime = 0.164445 s  ClockTime = 1 s

Time = 57s

smoothSolver:  Solving for Ux, Initial residual = 0.00459322, Final residual = 0.000392256, No Iterations 6
smoothSolver:  Solving for Uy, Initial residual = 0.0150585, Final residual = 0.00125051, No Iterations 6
Pressure gradient source: uncorrected Ubar = 1.0001, pressure gradient = -0.361249
GAMG:  Solving for p, Initial residual = 0.0412549, Final residual = 0.00374959, No Iterations 10
time step continuity errors : sum local = 9.85088e-06, global = -1.43195e-17, cumulative = -1.2952e-17
Pressure gradient source: uncorrected Ubar = 1.00001, pressure gradient = -0.332637
smoothSolver:  Solving for omega, Initial residual = 8.65142e-06, Final residual = 8.65142e-06, No Iterations 0
smoothSolver:  Solving for k, Initial residual = 0.0105999, Final residual = 0.000774749, No Iterations 6
ExecutionTime = 0.167222 s  ClockTime = 1 s

Time = 58s

smoothSolver:  Solving for Ux, Initial residual = 0.00444278, Final residual = 0.000383132, No Iterations 6
smoothSolver:  Solving for Uy, Initial residual = 0.0157042, Final residual = 0.00130756, No Iterations 6
Pressure gradient source: uncorrected Ubar = 1.00007, pressure gradient = -0.352872
GAMG:  Solving for p, Initial residual = 0.0435773, Final residual = 0.00399124, No Iterations 10
time step continuity errors : sum local = 1.07247e-05, global = -1.08272e-17, cumulative = -2.37792e-17
Pressure gradient source: uncorrected Ubar = 1, pressure gradient = -0.33324
smoothSolver:  Solving for omega, Initial residual = 8.56036e-06, Final residual = 8.56036e-06, No Iterations 0
smoothSolver:  Solving for k, Initial residual = 0.0102162, Final residual = 0.000750119, No Iterations 6
ExecutionTime = 0.170033 s  ClockTime = 1 s

Time = 59s

smoothSolver:  Solving for Ux, Initial residual = 0.00431093, Final residual = 0.000374256, No Iterations 6
smoothSolver:  Solving for Uy, Initial residual = 0.0154777, Final residual = 0.00128642, No Iterations 6
Pressure gradient source: uncorrected Ubar = 1.00003, pressure gradient = -0.341171
GAMG:  Solving for p, Initial residual = 0.0435618, Final residual = 0.00427015, No Iterations 10
time step continuity errors : sum local = 1.14518e-05, global = -3.89492e-18, cumulative = -2.76741e-17
Pressure gradient source: uncorrected Ubar = 0.999997, pressure gradient = -0.332361
smoothSolver:  Solving for omega, Initial residual = 8.48824e-06, Final residual = 8.48824e-06, No Iterations 0
smoothSolver:  Solving for k, Initial residual = 0.00985363, Final residual = 0.000723983, No Iterations 6
ExecutionTime = 0.172827 s  ClockTime = 1 s

Time = 60s

smoothSolver:  Solving for Ux, Initial residual = 0.00417586, Final residual = 0.000364172, No Iterations 6
smoothSolver:  Solving for Uy, Initial residual = 0.0150451, Final residual = 0.00124887, No Iterations 6
Pressure gradient source: uncorrected Ubar = 1, pressure gradient = -0.333357
GAMG:  Solving for p, Initial residual = 0.0434354, Final residual = 0.00386988, No Iterations 11
time step continuity errors : sum local = 1.00712e-05, global = 3.7022e-19, cumulative = -2.73039e-17
Pressure gradient source: uncorrected Ubar = 0.999994, pressure gradient = -0.330715
smoothSolver:  Solving for omega, Initial residual = 8.44541e-06, Final residual = 8.44541e-06, No Iterations 0
smoothSolver:  Solving for k, Initial residual = 0.0094857, Final residual = 0.000699944, No Iterations 6
ExecutionTime = 0.175665 s  ClockTime = 1 s

Time = 61s

smoothSolver:  Solving for Ux, Initial residual = 0.00404489, Final residual = 0.00035403, No Iterations 6
smoothSolver:  Solving for Uy, Initial residual = 0.0136359, Final residual = 0.00112602, No Iterations 6
Pressure gradient source: uncorrected Ubar = 0.999973, pressure gradient = -0.323789
GAMG:  Solving for p, Initial residual = 0.0438091, Final residual = 0.00437415, No Iterations 7
time step continuity errors : sum local = 9.9353e-06, global = 2.21516e-18, cumulative = -2.50888e-17
Pressure gradient source: uncorrected Ubar = 0.99999, pressure gradient = -0.328143
smoothSolver:  Solving for omega, Initial residual = 8.34359e-06, Final residual = 8.34359e-06, No Iterations 0
smoothSolver:  Solving for k, Initial residual = 0.00910819, Final residual = 0.000676186, No Iterations 6
ExecutionTime = 0.178321 s  ClockTime = 1 s

Time = 62s

smoothSolver:  Solving for Ux, Initial residual = 0.00395263, Final residual = 0.000346127, No Iterations 6
smoothSolver:  Solving for Uy, Initial residual = 0.0148214, Final residual = 0.00123913, No Iterations 6
Pressure gradient source: uncorrected Ubar = 0.999934, pressure gradient = -0.311536
GAMG:  Solving for p, Initial residual = 0.0446923, Final residual = 0.00363338, No Iterations 5
time step continuity errors : sum local = 8.47089e-06, global = 1.3601e-17, cumulative = -1.14878e-17
Pressure gradient source: uncorrected Ubar = 0.999985, pressure gradient = -0.324369
smoothSolver:  Solving for omega, Initial residual = 8.22165e-06, Final residual = 8.22165e-06, No Iterations 0
smoothSolver:  Solving for k, Initial residual = 0.00876464, Final residual = 0.000653142, No Iterations 6
ExecutionTime = 0.180862 s  ClockTime = 1 s

Time = 63s

smoothSolver:  Solving for Ux, Initial residual = 0.00383671, Final residual = 0.000337623, No Iterations 6
smoothSolver:  Solving for Uy, Initial residual = 0.0159945, Final residual = 0.00133004, No Iterations 6
Pressure gradient source: uncorrected Ubar = 0.999921, pressure gradient = -0.304883
GAMG:  Solving for p, Initial residual = 0.0451398, Final residual = 0.0043575, No Iterations 5
time step continuity errors : sum local = 9.89581e-06, global = 9.43673e-18, cumulative = -2.05103e-18
Pressure gradient source: uncorrected Ubar = 0.999984, pressure gradient = -0.320317
smoothSolver:  Solving for omega, Initial residual = 8.18383e-06, Final residual = 8.18383e-06, No Iterations 0
smoothSolver:  Solving for k, Initial residual = 0.00843676, Final residual = 0.000630677, No Iterations 6
ExecutionTime = 0.183443 s  ClockTime = 1 s

Time = 64s

smoothSolver:  Solving for Ux, Initial residual = 0.00372902, Final residual = 0.000328586, No Iterations 6
smoothSolver:  Solving for Uy, Initial residual = 0.0159101, Final residual = 0.0013212, No Iterations 6
Pressure gradient source: uncorrected Ubar = 0.999907, pressure gradient = -0.298177
GAMG:  Solving for p, Initial residual = 0.0424029, Final residual = 0.00414664, No Iterations 7
time step continuity errors : sum local = 9.5637e-06, global = 4.4802e-18, cumulative = 2.42917e-18
Pressure gradient source: uncorrected Ubar = 0.999982, pressure gradient = -0.316003
smoothSolver:  Solving for omega, Initial residual = 8.07914e-06, Final residual = 8.07914e-06, No Iterations 0
smoothSolver:  Solving for k, Initial residual = 0.00810767, Final residual = 0.000608961, No Iterations 6
ExecutionTime = 0.186112 s  ClockTime = 1 s

Time = 65s

smoothSolver:  Solving for Ux, Initial residual = 0.00362316, Final residual = 0.000319378, No Iterations 6
smoothSolver:  Solving for Uy, Initial residual = 0.0156119, Final residual = 0.00129237, No Iterations 6
Pressure gradient source: uncorrected Ubar = 0.9999, pressure gradient = -0.292796
GAMG:  Solving for p, Initial residual = 0.0405317, Final residual = 0.00355668, No Iterations 10
time step continuity errors : sum local = 8.43208e-06, global = 4.37905e-18, cumulative = 6.80822e-18
Pressure gradient source: uncorrected Ubar = 0.999981, pressure gradient = -0.311636
smoothSolver:  Solving for omega, Initial residual = 7.95708e-06, Final residual = 7.95708e-06, No Iterations 0
smoothSolver:  Solving for k, Initial residual = 0.00778344, Final residual = 0.000587595, No Iterations 6
ExecutionTime = 0.188891 s  ClockTime = 1 s

Time = 66s

smoothSolver:  Solving for Ux, Initial residual = 0.00350925, Final residual = 0.000309865, No Iterations 6
smoothSolver:  Solving for Uy, Initial residual = 0.0148893, Final residual = 0.00123435, No Iterations 6
Pressure gradient source: uncorrected Ubar = 0.999896, pressure gradient = -0.287957
GAMG:  Solving for p, Initial residual = 0.0386172, Final residual = 0.00373552, No Iterations 11
time step continuity errors : sum local = 8.59733e-06, global = -1.21943e-17, cumulative = -5.38609e-18
Pressure gradient source: uncorrected Ubar = 0.999981, pressure gradient = -0.307288
smoothSolver:  Solving for omega, Initial residual = 7.94563e-06, Final residual = 7.94563e-06, No Iterations 0
smoothSolver:  Solving for k, Initial residual = 0.00747299, Final residual = 0.000566543, No Iterations 6
ExecutionTime = 0.191744 s  ClockTime = 1 s

Time = 67s

smoothSolver:  Solving for Ux, Initial residual = 0.00339279, Final residual = 0.000300219, No Iterations 6
smoothSolver:  Solving for Uy, Initial residual = 0.0141604, Final residual = 0.00116635, No Iterations 6
Pressure gradient source: uncorrected Ubar = 0.999894, pressure gradient = -0.283843
GAMG:  Solving for p, Initial residual = 0.0381549, Final residual = 0.00371526, No Iterations 9
time step continuity errors : sum local = 8.06034e-06, global = -2.87038e-19, cumulative = -5.67313e-18
Pressure gradient source: uncorrected Ubar = 0.999981, pressure gradient = -0.30305
smoothSolver:  Solving for omega, Initial residual = 7.88705e-06, Final residual = 7.88705e-06, No Iterations 0
smoothSolver:  Solving for k, Initial residual = 0.00716655, Final residual = 0.000546067, No Iterations 6
ExecutionTime = 0.194492 s  ClockTime = 1 s

Time = 68s

smoothSolver:  Solving for Ux, Initial residual = 0.00328558, Final residual = 0.000291278, No Iterations 6
smoothSolver:  Solving for Uy, Initial residual = 0.0126332, Final residual = 0.00102373, No Iterations 6
Pressure gradient source: uncorrected Ubar = 0.999888, pressure gradient = -0.278737
GAMG:  Solving for p, Initial residual = 0.0368011, Final residual = 0.00349565, No Iterations 9
time step continuity errors : sum local = 6.64772e-06, global = 1.47046e-18, cumulative = -4.20267e-18
Pressure gradient source: uncorrected Ubar = 0.99998, pressure gradient = -0.298758
smoothSolver:  Solving for omega, Initial residual = 7.74437e-06, Final residual = 7.74437e-06, No Iterations 0
smoothSolver:  Solving for k, Initial residual = 0.0068717, Final residual = 0.000527781, No Iterations 6
ExecutionTime = 0.197241 s  ClockTime = 1 s

Time = 69s

smoothSolver:  Solving for Ux, Initial residual = 0.0032059, Final residual = 0.000284488, No Iterations 6
smoothSolver:  Solving for Uy, Initial residual = 0.0135473, Final residual = 0.00111416, No Iterations 6
Pressure gradient source: uncorrected Ubar = 0.999868, pressure gradient = -0.270504
GAMG:  Solving for p, Initial residual = 0.0399859, Final residual = 0.00399241, No Iterations 6
time step continuity errors : sum local = 8.56808e-06, global = 3.89985e-18, cumulative = -3.0282e-19
Pressure gradient source: uncorrected Ubar = 0.999978, pressure gradient = -0.29397
smoothSolver:  Solving for omega, Initial residual = 7.66404e-06, Final residual = 7.66404e-06, No Iterations 0
smoothSolver:  Solving for k, Initial residual = 0.00660318, Final residual = 0.000510581, No Iterations 6
ExecutionTime = 0.199869 s  ClockTime = 1 s

Time = 70s

smoothSolver:  Solving for Ux, Initial residual = 0.00314044, Final residual = 0.000278166, No Iterations 6
smoothSolver:  Solving for Uy, Initial residual = 0.0141858, Final residual = 0.00118062, No Iterations 6
Pressure gradient source: uncorrected Ubar = 0.99987, pressure gradient = -0.26668
GAMG:  Solving for p, Initial residual = 0.0359403, Final residual = 0.00292339, No Iterations 4
time step continuity errors : sum local = 6.65162e-06, global = 2.25374e-18, cumulative = 1.95092e-18
Pressure gradient source: uncorrected Ubar = 0.999978, pressure gradient = -0.289368
smoothSolver:  Solving for omega, Initial residual = 7.63691e-06, Final residual = 7.63691e-06, No Iterations 0
smoothSolver:  Solving for k, Initial residual = 0.00635465, Final residual = 0.000493712, No Iterations 6
ExecutionTime = 0.202477 s  ClockTime = 1 s

Time = 71s

smoothSolver:  Solving for Ux, Initial residual = 0.0030771, Final residual = 0.000272348, No Iterations 6
smoothSolver:  Solving for Uy, Initial residual = 0.0143453, Final residual = 0.00119714, No Iterations 6
Pressure gradient source: uncorrected Ubar = 0.999874, pressure gradient = -0.263311
GAMG:  Solving for p, Initial residual = 0.0307896, Final residual = 0.00304989, No Iterations 4
time step continuity errors : sum local = 6.64269e-06, global = -9.61329e-18, cumulative = -7.66237e-18
Pressure gradient source: uncorrected Ubar = 0.999979, pressure gradient = -0.284984
smoothSolver:  Solving for omega, Initial residual = 7.55884e-06, Final residual = 7.55884e-06, No Iterations 0
smoothSolver:  Solving for k, Initial residual = 0.00611727, Final residual = 0.00047552, No Iterations 6
ExecutionTime = 0.205012 s  ClockTime = 1 s

Time = 72s

smoothSolver:  Solving for Ux, Initial residual = 0.00301624, Final residual = 0.000266817, No Iterations 6
smoothSolver:  Solving for Uy, Initial residual = 0.014086, Final residual = 0.00117429, No Iterations 6
Pressure gradient source: uncorrected Ubar = 0.999879, pressure gradient = -0.260288
GAMG:  Solving for p, Initial residual = 0.0287572, Final residual = 0.00274539, No Iterations 7
time step continuity errors : sum local = 6.1054e-06, global = 7.64139e-18, cumulative = -2.09831e-20
Pressure gradient source: uncorrected Ubar = 0.99998, pressure gradient = -0.280831
smoothSolver:  Solving for omega, Initial residual = 7.44045e-06, Final residual = 7.44045e-06, No Iterations 0
smoothSolver:  Solving for k, Initial residual = 0.00588225, Final residual = 0.000457914, No Iterations 6
ExecutionTime = 0.207688 s  ClockTime = 1 s

Time = 73s

smoothSolver:  Solving for Ux, Initial residual = 0.00295675, Final residual = 0.00026149, No Iterations 6
smoothSolver:  Solving for Uy, Initial residual = 0.0136709, Final residual = 0.00112908, No Iterations 6
Pressure gradient source: uncorrected Ubar = 0.999885, pressure gradient = -0.257583
GAMG:  Solving for p, Initial residual = 0.0286818, Final residual = 0.00280198, No Iterations 10
time step continuity errors : sum local = 6.40673e-06, global = 2.25926e-19, cumulative = 2.04943e-19
Pressure gradient source: uncorrected Ubar = 0.999981, pressure gradient = -0.276917
smoothSolver:  Solving for omega, Initial residual = 7.40562e-06, Final residual = 7.40562e-06, No Iterations 0
smoothSolver:  Solving for k, Initial residual = 0.00564327, Final residual = 0.000440095, No Iterations 6
ExecutionTime = 0.210526 s  ClockTime = 1 s

Time = 74s

smoothSolver:  Solving for Ux, Initial residual = 0.00289663, Final residual = 0.000256366, No Iterations 6
smoothSolver:  Solving for Uy, Initial residual = 0.013067, Final residual = 0.00106595, No Iterations 6
Pressure gradient source: uncorrected Ubar = 0.999891, pressure gradient = -0.255146
GAMG:  Solving for p, Initial residual = 0.0287672, Final residual = 0.00287209, No Iterations 11
time step continuity errors : sum local = 6.33686e-06, global = -4.44408e-18, cumulative = -4.23913e-18
Pressure gradient source: uncorrected Ubar = 0.999982, pressure gradient = -0.273242
smoothSolver:  Solving for omega, Initial residual = 7.36387e-06, Final residual = 7.36387e-06, No Iterations 0
smoothSolver:  Solving for k, Initial residual = 0.00541006, Final residual = 0.000422414, No Iterations 6
ExecutionTime = 0.213411 s  ClockTime = 1 s

Time = 75s

smoothSolver:  Solving for Ux, Initial residual = 0.00283546, Final residual = 0.000251408, No Iterations 6
smoothSolver:  Solving for Uy, Initial residual = 0.0125051, Final residual = 0.000998602, No Iterations 6
Pressure gradient source: uncorrected Ubar = 0.999897, pressure gradient = -0.252992
GAMG:  Solving for p, Initial residual = 0.0288321, Final residual = 0.00278571, No Iterations 11
time step continuity errors : sum local = 5.75742e-06, global = 3.51914e-18, cumulative = -7.1999e-19
Pressure gradient source: uncorrected Ubar = 0.999983, pressure gradient = -0.26981
smoothSolver:  Solving for omega, Initial residual = 7.27478e-06, Final residual = 7.27478e-06, No Iterations 0
smoothSolver:  Solving for k, Initial residual = 0.00518841, Final residual = 0.000405517, No Iterations 6
ExecutionTime = 0.216242 s  ClockTime = 1 s

Time = 76s

smoothSolver:  Solving for Ux, Initial residual = 0.00277465, Final residual = 0.000246557, No Iterations 6
smoothSolver:  Solving for Uy, Initial residual = 0.0120952, Final residual = 0.00092571, No Iterations 6
Pressure gradient source: uncorrected Ubar = 0.999903, pressure gradient = -0.250846
GAMG:  Solving for p, Initial residual = 0.0284537, Final residual = 0.00279135, No Iterations 6
time step continuity errors : sum local = 5.32434e-06, global = 3.80481e-18, cumulative = 3.08482e-18
Pressure gradient source: uncorrected Ubar = 0.999983, pressure gradient = -0.266585
smoothSolver:  Solving for omega, Initial residual = 7.2206e-06, Final residual = 7.2206e-06, No Iterations 0
smoothSolver:  Solving for k, Initial residual = 0.00496776, Final residual = 0.000388193, No Iterations 6
ExecutionTime = 0.218894 s  ClockTime = 1 s

Time = 77s

smoothSolver:  Solving for Ux, Initial residual = 0.00272536, Final residual = 0.000242146, No Iterations 6
smoothSolver:  Solving for Uy, Initial residual = 0.0116153, Final residual = 0.000834961, No Iterations 6
Pressure gradient source: uncorrected Ubar = 0.999903, pressure gradient = -0.247747
GAMG:  Solving for p, Initial residual = 0.0315228, Final residual = 0.00284984, No Iterations 7
time step continuity errors : sum local = 5.26653e-06, global = -5.07325e-19, cumulative = 2.57749e-18
Pressure gradient source: uncorrected Ubar = 0.999984, pressure gradient = -0.263403
smoothSolver:  Solving for omega, Initial residual = 7.19411e-06, Final residual = 7.19411e-06, No Iterations 0
smoothSolver:  Solving for k, Initial residual = 0.00475315, Final residual = 0.000371688, No Iterations 6
ExecutionTime = 0.221676 s  ClockTime = 1 s

Time = 78s

smoothSolver:  Solving for Ux, Initial residual = 0.00269002, Final residual = 0.000238742, No Iterations 6
smoothSolver:  Solving for Uy, Initial residual = 0.012024, Final residual = 0.000952989, No Iterations 6
Pressure gradient source: uncorrected Ubar = 0.9999, pressure gradient = -0.244206
GAMG:  Solving for p, Initial residual = 0.0314732, Final residual = 0.00257558, No Iterations 6
time step continuity errors : sum local = 5.55708e-06, global = -4.00318e-18, cumulative = -1.42569e-18
Pressure gradient source: uncorrected Ubar = 0.999983, pressure gradient = -0.260194
smoothSolver:  Solving for omega, Initial residual = 7.15736e-06, Final residual = 7.15736e-06, No Iterations 0
smoothSolver:  Solving for k, Initial residual = 0.00456325, Final residual = 0.000356222, No Iterations 6
ExecutionTime = 0.224347 s  ClockTime = 1 s

Time = 79s

smoothSolver:  Solving for Ux, Initial residual = 0.00265452, Final residual = 0.000235747, No Iterations 6
smoothSolver:  Solving for Uy, Initial residual = 0.0125619, Final residual = 0.00100131, No Iterations 6
Pressure gradient source: uncorrected Ubar = 0.999907, pressure gradient = -0.242497
GAMG:  Solving for p, Initial residual = 0.0282733, Final residual = 0.00279948, No Iterations 5
time step continuity errors : sum local = 6.16694e-06, global = 1.13079e-17, cumulative = 9.8822e-18
Pressure gradient source: uncorrected Ubar = 0.999984, pressure gradient = -0.257214
smoothSolver:  Solving for omega, Initial residual = 7.12617e-06, Final residual = 7.12617e-06, No Iterations 0
smoothSolver:  Solving for k, Initial residual = 0.00438333, Final residual = 0.000341212, No Iterations 6
ExecutionTime = 0.226972 s  ClockTime = 1 s

Time = 80s

smoothSolver:  Solving for Ux, Initial residual = 0.00262045, Final residual = 0.000232944, No Iterations 6
smoothSolver:  Solving for Uy, Initial residual = 0.012618, Final residual = 0.00100674, No Iterations 6
Pressure gradient source: uncorrected Ubar = 0.999912, pressure gradient = -0.240623
GAMG:  Solving for p, Initial residual = 0.0247087, Final residual = 0.00231399, No Iterations 4
time step continuity errors : sum local = 5.03266e-06, global = 5.84559e-18, cumulative = 1.57278e-17
Pressure gradient source: uncorrected Ubar = 0.999985, pressure gradient = -0.254406
smoothSolver:  Solving for omega, Initial residual = 7.09954e-06, Final residual = 7.09954e-06, No Iterations 0
smoothSolver:  Solving for k, Initial residual = 0.0042057, Final residual = 0.000326374, No Iterations 6
ExecutionTime = 0.229514 s  ClockTime = 1 s

Time = 81s

smoothSolver:  Solving for Ux, Initial residual = 0.00258864, Final residual = 0.000230278, No Iterations 6
smoothSolver:  Solving for Uy, Initial residual = 0.012419, Final residual = 0.000990403, No Iterations 6
Pressure gradient source: uncorrected Ubar = 0.999917, pressure gradient = -0.2389
GAMG:  Solving for p, Initial residual = 0.0226519, Final residual = 0.0020751, No Iterations 4
time step continuity errors : sum local = 4.00915e-06, global = -1.18443e-18, cumulative = 1.45434e-17
Pressure gradient source: uncorrected Ubar = 0.999986, pressure gradient = -0.251766
smoothSolver:  Solving for omega, Initial residual = 7.07735e-06, Final residual = 7.07735e-06, No Iterations 0
smoothSolver:  Solving for k, Initial residual = 0.00403783, Final residual = 0.000311037, No Iterations 6
ExecutionTime = 0.232035 s  ClockTime = 1 s

Time = 82s

smoothSolver:  Solving for Ux, Initial residual = 0.00255977, Final residual = 0.000227728, No Iterations 6
smoothSolver:  Solving for Uy, Initial residual = 0.0121204, Final residual = 0.00096229, No Iterations 6
Pressure gradient source: uncorrected Ubar = 0.999922, pressure gradient = -0.237288
GAMG:  Solving for p, Initial residual = 0.0221364, Final residual = 0.00219012, No Iterations 6
time step continuity errors : sum local = 4.48934e-06, global = 3.8761e-19, cumulative = 1.4931e-17
Pressure gradient source: uncorrected Ubar = 0.999987, pressure gradient = -0.249285
smoothSolver:  Solving for omega, Initial residual = 7.05783e-06, Final residual = 7.05783e-06, No Iterations 0
smoothSolver:  Solving for k, Initial residual = 0.00387403, Final residual = 0.000296106, No Iterations 6
ExecutionTime = 0.234662 s  ClockTime = 1 s

Time = 83s

smoothSolver:  Solving for Ux, Initial residual = 0.00253205, Final residual = 0.000225325, No Iterations 6
smoothSolver:  Solving for Uy, Initial residual = 0.0116848, Final residual = 0.000922634, No Iterations 6
Pressure gradient source: uncorrected Ubar = 0.999927, pressure gradient = -0.235807
GAMG:  Solving for p, Initial residual = 0.0233983, Final residual = 0.00220806, No Iterations 10
time step continuity errors : sum local = 4.55931e-06, global = -3.06308e-19, cumulative = 1.46247e-17
Pressure gradient source: uncorrected Ubar = 0.999987, pressure gradient = -0.246958
smoothSolver:  Solving for omega, Initial residual = 7.04045e-06, Final residual = 7.04045e-06, No Iterations 0
smoothSolver:  Solving for k, Initial residual = 0.00371112, Final residual = 0.000283033, No Iterations 6
ExecutionTime = 0.237463 s  ClockTime = 1 s

Time = 84s

smoothSolver:  Solving for Ux, Initial residual = 0.00250437, Final residual = 0.000222934, No Iterations 6
smoothSolver:  Solving for Uy, Initial residual = 0.011297, Final residual = 0.000883962, No Iterations 6
Pressure gradient source: uncorrected Ubar = 0.999932, pressure gradient = -0.234399
GAMG:  Solving for p, Initial residual = 0.0241872, Final residual = 0.00230168, No Iterations 11
time step continuity errors : sum local = 4.5285e-06, global = -3.70737e-18, cumulative = 1.09173e-17
Pressure gradient source: uncorrected Ubar = 0.999988, pressure gradient = -0.244772
smoothSolver:  Solving for omega, Initial residual = 7.02759e-06, Final residual = 7.02759e-06, No Iterations 0
smoothSolver:  Solving for k, Initial residual = 0.00354729, Final residual = 0.000270027, No Iterations 6
ExecutionTime = 0.240286 s  ClockTime = 1 s

Time = 85s

smoothSolver:  Solving for Ux, Initial residual = 0.00247557, Final residual = 0.000220539, No Iterations 6
smoothSolver:  Solving for Uy, Initial residual = 0.0111334, Final residual = 0.000870519, No Iterations 6
Pressure gradient source: uncorrected Ubar = 0.999936, pressure gradient = -0.233115
GAMG:  Solving for p, Initial residual = 0.0251509, Final residual = 0.00231045, No Iterations 8
time step continuity errors : sum local = 4.22603e-06, global = -7.19819e-18, cumulative = 3.7191e-18
Pressure gradient source: uncorrected Ubar = 0.999989, pressure gradient = -0.242725
smoothSolver:  Solving for omega, Initial residual = 7.01829e-06, Final residual = 7.01829e-06, No Iterations 0
smoothSolver:  Solving for k, Initial residual = 0.00338344, Final residual = 0.000258536, No Iterations 6
ExecutionTime = 0.243 s  ClockTime = 1 s

Time = 86s

smoothSolver:  Solving for Ux, Initial residual = 0.00244562, Final residual = 0.000218125, No Iterations 6
smoothSolver:  Solving for Uy, Initial residual = 0.0110272, Final residual = 0.000859888, No Iterations 6
Pressure gradient source: uncorrected Ubar = 0.999941, pressure gradient = -0.231922
GAMG:  Solving for p, Initial residual = 0.0256725, Final residual = 0.00230979, No Iterations 6
time step continuity errors : sum local = 4.02577e-06, global = 3.48834e-18, cumulative = 7.20744e-18
Pressure gradient source: uncorrected Ubar = 0.99999, pressure gradient = -0.24081
smoothSolver:  Solving for omega, Initial residual = 7.01507e-06, Final residual = 7.01507e-06, No Iterations 0
smoothSolver:  Solving for k, Initial residual = 0.00322237, Final residual = 0.000246974, No Iterations 6
ExecutionTime = 0.245612 s  ClockTime = 1 s

Time = 87s

smoothSolver:  Solving for Ux, Initial residual = 0.00241403, Final residual = 0.000215655, No Iterations 6
smoothSolver:  Solving for Uy, Initial residual = 0.0110254, Final residual = 0.000853798, No Iterations 6
Pressure gradient source: uncorrected Ubar = 0.999945, pressure gradient = -0.230837
GAMG:  Solving for p, Initial residual = 0.0254632, Final residual = 0.00224618, No Iterations 8
time step continuity errors : sum local = 3.87349e-06, global = -6.15721e-18, cumulative = 1.05022e-18
Pressure gradient source: uncorrected Ubar = 0.99999, pressure gradient = -0.239023
smoothSolver:  Solving for omega, Initial residual = 7.01409e-06, Final residual = 7.01409e-06, No Iterations 0
smoothSolver:  Solving for k, Initial residual = 0.00306923, Final residual = 0.000236939, No Iterations 6
ExecutionTime = 0.248291 s  ClockTime = 1 s

Time = 88s

smoothSolver:  Solving for Ux, Initial residual = 0.00238478, Final residual = 0.000213301, No Iterations 6
smoothSolver:  Solving for Uy, Initial residual = 0.0108323, Final residual = 0.000829741, No Iterations 6
Pressure gradient source: uncorrected Ubar = 0.999947, pressure gradient = -0.229346
GAMG:  Solving for p, Initial residual = 0.0271154, Final residual = 0.00256561, No Iterations 6
time step continuity errors : sum local = 4.28921e-06, global = -4.10263e-18, cumulative = -3.05241e-18
Pressure gradient source: uncorrected Ubar = 0.99999, pressure gradient = -0.237288
smoothSolver:  Solving for omega, Initial residual = 7.00776e-06, Final residual = 7.00776e-06, No Iterations 0
smoothSolver:  Solving for k, Initial residual = 0.002928, Final residual = 0.000227111, No Iterations 6
ExecutionTime = 0.250917 s  ClockTime = 1 s

Time = 89s

smoothSolver:  Solving for Ux, Initial residual = 0.00235764, Final residual = 0.000211071, No Iterations 6
smoothSolver:  Solving for Uy, Initial residual = 0.0114551, Final residual = 0.000868239, No Iterations 6
Pressure gradient source: uncorrected Ubar = 0.999948, pressure gradient = -0.227892
[...]
smoothSolver:  Solving for omega, Initial residual = 5.80921e-06, Final residual = 5.80921e-06, No Iterations 0
smoothSolver:  Solving for k, Initial residual = 2.21671e-05, Final residual = 9.70031e-06, No Iterations 2
ExecutionTime = 5.80082 s  ClockTime = 6 s

Time = 2157s

smoothSolver:  Solving for Ux, Initial residual = 1.40181e-05, Final residual = 9.1202e-06, No Iterations 1
smoothSolver:  Solving for Uy, Initial residual = 0.000188141, Final residual = 1.34457e-05, No Iterations 6
Pressure gradient source: uncorrected Ubar = 1, pressure gradient = 0.0269977
GAMG:  Solving for p, Initial residual = 9.06777e-05, Final residual = 8.14148e-06, No Iterations 8
time step continuity errors : sum local = 4.26393e-10, global = -1.74961e-18, cumulative = -1.61706e-17
Pressure gradient source: uncorrected Ubar = 1, pressure gradient = 0.0269983
smoothSolver:  Solving for omega, Initial residual = 5.80921e-06, Final residual = 5.80921e-06, No Iterations 0
smoothSolver:  Solving for k, Initial residual = 2.20943e-05, Final residual = 9.66837e-06, No Iterations 2
ExecutionTime = 5.80341 s  ClockTime = 6 s

Time = 2158s

smoothSolver:  Solving for Ux, Initial residual = 1.39863e-05, Final residual = 9.10002e-06, No Iterations 1
smoothSolver:  Solving for Uy, Initial residual = 0.00018515, Final residual = 1.31504e-05, No Iterations 6
Pressure gradient source: uncorrected Ubar = 1, pressure gradient = 0.0269986
GAMG:  Solving for p, Initial residual = 8.98983e-05, Final residual = 8.22897e-06, No Iterations 8
time step continuity errors : sum local = 4.313e-10, global = -4.54047e-18, cumulative = -2.07111e-17
Pressure gradient source: uncorrected Ubar = 1, pressure gradient = 0.0269992
smoothSolver:  Solving for omega, Initial residual = 5.80921e-06, Final residual = 5.80921e-06, No Iterations 0
smoothSolver:  Solving for k, Initial residual = 2.20215e-05, Final residual = 9.63648e-06, No Iterations 2
ExecutionTime = 5.80603 s  ClockTime = 6 s

Time = 2159s

smoothSolver:  Solving for Ux, Initial residual = 1.39546e-05, Final residual = 9.07984e-06, No Iterations 1
smoothSolver:  Solving for Uy, Initial residual = 0.000181881, Final residual = 1.28394e-05, No Iterations 6
Pressure gradient source: uncorrected Ubar = 1, pressure gradient = 0.0269995
GAMG:  Solving for p, Initial residual = 8.91617e-05, Final residual = 8.30635e-06, No Iterations 8
time step continuity errors : sum local = 4.35867e-10, global = 2.37679e-18, cumulative = -1.83343e-17
Pressure gradient source: uncorrected Ubar = 1, pressure gradient = 0.0270001
smoothSolver:  Solving for omega, Initial residual = 5.80921e-06, Final residual = 5.80921e-06, No Iterations 0
smoothSolver:  Solving for k, Initial residual = 2.19495e-05, Final residual = 9.60617e-06, No Iterations 2
ExecutionTime = 5.80864 s  ClockTime = 6 s

Time = 2160s

smoothSolver:  Solving for Ux, Initial residual = 1.39228e-05, Final residual = 9.05965e-06, No Iterations 1
smoothSolver:  Solving for Uy, Initial residual = 0.000178128, Final residual = 1.24996e-05, No Iterations 6
Pressure gradient source: uncorrected Ubar = 1, pressure gradient = 0.0270004
GAMG:  Solving for p, Initial residual = 8.8383e-05, Final residual = 8.32094e-06, No Iterations 8
time step continuity errors : sum local = 4.37205e-10, global = -8.96526e-19, cumulative = -1.92308e-17
Pressure gradient source: uncorrected Ubar = 1, pressure gradient = 0.027001
smoothSolver:  Solving for omega, Initial residual = 5.80921e-06, Final residual = 5.80921e-06, No Iterations 0
smoothSolver:  Solving for k, Initial residual = 2.18763e-05, Final residual = 9.57284e-06, No Iterations 2
ExecutionTime = 5.81123 s  ClockTime = 6 s

Time = 2161s

smoothSolver:  Solving for Ux, Initial residual = 1.38914e-05, Final residual = 9.03948e-06, No Iterations 1
smoothSolver:  Solving for Uy, Initial residual = 0.000174583, Final residual = 1.21831e-05, No Iterations 6
Pressure gradient source: uncorrected Ubar = 1, pressure gradient = 0.0270013
GAMG:  Solving for p, Initial residual = 8.77571e-05, Final residual = 8.27047e-06, No Iterations 8
time step continuity errors : sum local = 4.35015e-10, global = 9.9434e-19, cumulative = -1.82365e-17
Pressure gradient source: uncorrected Ubar = 1, pressure gradient = 0.0270019
smoothSolver:  Solving for omega, Initial residual = 5.80921e-06, Final residual = 5.80921e-06, No Iterations 0
smoothSolver:  Solving for k, Initial residual = 2.18045e-05, Final residual = 9.54261e-06, No Iterations 2
ExecutionTime = 5.81384 s  ClockTime = 6 s

Time = 2162s

smoothSolver:  Solving for Ux, Initial residual = 1.38611e-05, Final residual = 9.02023e-06, No Iterations 1
smoothSolver:  Solving for Uy, Initial residual = 0.000170519, Final residual = 1.18355e-05, No Iterations 6
Pressure gradient source: uncorrected Ubar = 1, pressure gradient = 0.0270022
GAMG:  Solving for p, Initial residual = 8.69611e-05, Final residual = 8.11928e-06, No Iterations 8
time step continuity errors : sum local = 4.27508e-10, global = -5.76899e-18, cumulative = -2.40055e-17
Pressure gradient source: uncorrected Ubar = 1, pressure gradient = 0.0270027
smoothSolver:  Solving for omega, Initial residual = 5.80921e-06, Final residual = 5.80921e-06, No Iterations 0
smoothSolver:  Solving for k, Initial residual = 2.17321e-05, Final residual = 9.5109e-06, No Iterations 2
ExecutionTime = 5.81649 s  ClockTime = 6 s

Time = 2163s

smoothSolver:  Solving for Ux, Initial residual = 1.38309e-05, Final residual = 9.00101e-06, No Iterations 1
smoothSolver:  Solving for Uy, Initial residual = 0.000166308, Final residual = 1.14849e-05, No Iterations 6
Pressure gradient source: uncorrected Ubar = 1, pressure gradient = 0.027003
GAMG:  Solving for p, Initial residual = 8.61515e-05, Final residual = 7.87415e-06, No Iterations 8
time step continuity errors : sum local = 4.14978e-10, global = -1.3052e-18, cumulative = -2.53107e-17
Pressure gradient source: uncorrected Ubar = 1, pressure gradient = 0.0270036
smoothSolver:  Solving for omega, Initial residual = 5.80921e-06, Final residual = 5.80921e-06, No Iterations 0
smoothSolver:  Solving for k, Initial residual = 2.16598e-05, Final residual = 9.47924e-06, No Iterations 2
ExecutionTime = 5.8191 s  ClockTime = 6 s

Time = 2164s

smoothSolver:  Solving for Ux, Initial residual = 1.38006e-05, Final residual = 8.98179e-06, No Iterations 1
smoothSolver:  Solving for Uy, Initial residual = 0.000161976, Final residual = 1.11332e-05, No Iterations 6
Pressure gradient source: uncorrected Ubar = 1, pressure gradient = 0.0270039
GAMG:  Solving for p, Initial residual = 8.52507e-05, Final residual = 7.5472e-06, No Iterations 8
time step continuity errors : sum local = 3.98073e-10, global = -3.3719e-18, cumulative = -2.86826e-17
Pressure gradient source: uncorrected Ubar = 1, pressure gradient = 0.0270045
smoothSolver:  Solving for omega, Initial residual = 5.80921e-06, Final residual = 5.80921e-06, No Iterations 0
smoothSolver:  Solving for k, Initial residual = 2.15877e-05, Final residual = 9.44763e-06, No Iterations 2
ExecutionTime = 5.82171 s  ClockTime = 6 s

Time = 2165s

smoothSolver:  Solving for Ux, Initial residual = 1.37702e-05, Final residual = 8.96255e-06, No Iterations 1
smoothSolver:  Solving for Uy, Initial residual = 0.000157516, Final residual = 1.0777e-05, No Iterations 6
Pressure gradient source: uncorrected Ubar = 1, pressure gradient = 0.0270048
GAMG:  Solving for p, Initial residual = 8.42979e-05, Final residual = 8.12095e-06, No Iterations 7
time step continuity errors : sum local = 4.26416e-10, global = -5.00109e-18, cumulative = -3.36837e-17
Pressure gradient source: uncorrected Ubar = 1, pressure gradient = 0.0270054
smoothSolver:  Solving for omega, Initial residual = 5.80921e-06, Final residual = 5.80921e-06, No Iterations 0
smoothSolver:  Solving for k, Initial residual = 2.15157e-05, Final residual = 9.41607e-06, No Iterations 2
ExecutionTime = 5.8243 s  ClockTime = 6 s

Time = 2166s

smoothSolver:  Solving for Ux, Initial residual = 1.37399e-05, Final residual = 8.94331e-06, No Iterations 1
smoothSolver:  Solving for Uy, Initial residual = 0.000153207, Final residual = 1.04383e-05, No Iterations 6
Pressure gradient source: uncorrected Ubar = 1, pressure gradient = 0.0270057
GAMG:  Solving for p, Initial residual = 8.32802e-05, Final residual = 8.1283e-06, No Iterations 7
time step continuity errors : sum local = 4.27056e-10, global = -2.2101e-18, cumulative = -3.58938e-17
Pressure gradient source: uncorrected Ubar = 1, pressure gradient = 0.0270063
smoothSolver:  Solving for omega, Initial residual = 5.80921e-06, Final residual = 5.80921e-06, No Iterations 0
smoothSolver:  Solving for k, Initial residual = 2.14437e-05, Final residual = 9.38456e-06, No Iterations 2
ExecutionTime = 5.82686 s  ClockTime = 6 s

Time = 2167s

smoothSolver:  Solving for Ux, Initial residual = 1.37095e-05, Final residual = 8.92405e-06, No Iterations 1
smoothSolver:  Solving for Uy, Initial residual = 0.000148279, Final residual = 1.0058e-05, No Iterations 6
Pressure gradient source: uncorrected Ubar = 1, pressure gradient = 0.0270065
GAMG:  Solving for p, Initial residual = 8.23304e-05, Final residual = 7.9573e-06, No Iterations 7
time step continuity errors : sum local = 4.18838e-10, global = 5.11576e-18, cumulative = -3.0778e-17
Pressure gradient source: uncorrected Ubar = 1, pressure gradient = 0.0270071
smoothSolver:  Solving for omega, Initial residual = 5.80921e-06, Final residual = 5.80921e-06, No Iterations 0
smoothSolver:  Solving for k, Initial residual = 2.13719e-05, Final residual = 9.3531e-06, No Iterations 2
ExecutionTime = 5.82945 s  ClockTime = 6 s

Time = 2168s

smoothSolver:  Solving for Ux, Initial residual = 1.36792e-05, Final residual = 8.90478e-06, No Iterations 1
smoothSolver:  Solving for Uy, Initial residual = 0.000143033, Final residual = 9.66179e-06, No Iterations 6
Pressure gradient source: uncorrected Ubar = 1, pressure gradient = 0.0270074
GAMG:  Solving for p, Initial residual = 8.13856e-05, Final residual = 7.56577e-06, No Iterations 7
time step continuity errors : sum local = 3.99303e-10, global = -6.08154e-18, cumulative = -3.68596e-17
Pressure gradient source: uncorrected Ubar = 1, pressure gradient = 0.027008
smoothSolver:  Solving for omega, Initial residual = 5.80921e-06, Final residual = 5.80921e-06, No Iterations 0
smoothSolver:  Solving for k, Initial residual = 2.13002e-05, Final residual = 9.32168e-06, No Iterations 2
ExecutionTime = 5.83201 s  ClockTime = 6 s

Time = 2169s

smoothSolver:  Solving for Ux, Initial residual = 1.36488e-05, Final residual = 8.88551e-06, No Iterations 1
smoothSolver:  Solving for Uy, Initial residual = 0.00013782, Final residual = 9.27502e-06, No Iterations 6
Pressure gradient source: uncorrected Ubar = 1, pressure gradient = 0.0270083
GAMG:  Solving for p, Initial residual = 8.03443e-05, Final residual = 6.97399e-06, No Iterations 7
time step continuity errors : sum local = 3.69093e-10, global = 3.92628e-18, cumulative = -3.29333e-17
Pressure gradient source: uncorrected Ubar = 1, pressure gradient = 0.0270089
smoothSolver:  Solving for omega, Initial residual = 5.80921e-06, Final residual = 5.80921e-06, No Iterations 0
smoothSolver:  Solving for k, Initial residual = 2.12286e-05, Final residual = 9.29032e-06, No Iterations 2
ExecutionTime = 5.83458 s  ClockTime = 6 s

Time = 2170s

smoothSolver:  Solving for Ux, Initial residual = 1.36184e-05, Final residual = 8.86622e-06, No Iterations 1
smoothSolver:  Solving for Uy, Initial residual = 0.000132838, Final residual = 8.90967e-06, No Iterations 6
Pressure gradient source: uncorrected Ubar = 1, pressure gradient = 0.0270091
GAMG:  Solving for p, Initial residual = 7.91939e-05, Final residual = 6.20204e-06, No Iterations 7
time step continuity errors : sum local = 3.29408e-10, global = -1.35864e-18, cumulative = -3.42919e-17
Pressure gradient source: uncorrected Ubar = 1, pressure gradient = 0.0270097
smoothSolver:  Solving for omega, Initial residual = 5.80921e-06, Final residual = 5.80921e-06, No Iterations 0
smoothSolver:  Solving for k, Initial residual = 2.11572e-05, Final residual = 9.25901e-06, No Iterations 2
ExecutionTime = 5.83716 s  ClockTime = 6 s

Time = 2171s

smoothSolver:  Solving for Ux, Initial residual = 1.35881e-05, Final residual = 8.84693e-06, No Iterations 1
smoothSolver:  Solving for Uy, Initial residual = 0.000128127, Final residual = 8.55794e-06, No Iterations 6
Pressure gradient source: uncorrected Ubar = 1, pressure gradient = 0.02701
GAMG:  Solving for p, Initial residual = 7.79961e-05, Final residual = 7.41824e-06, No Iterations 5
time step continuity errors : sum local = 3.88909e-10, global = -6.56065e-19, cumulative = -3.4948e-17
Pressure gradient source: uncorrected Ubar = 1, pressure gradient = 0.0270106
smoothSolver:  Solving for omega, Initial residual = 5.80921e-06, Final residual = 5.80921e-06, No Iterations 0
smoothSolver:  Solving for k, Initial residual = 2.10858e-05, Final residual = 9.22775e-06, No Iterations 2
ExecutionTime = 5.83963 s  ClockTime = 6 s

Time = 2172s

smoothSolver:  Solving for Ux, Initial residual = 1.35577e-05, Final residual = 8.82763e-06, No Iterations 1
smoothSolver:  Solving for Uy, Initial residual = 0.000124151, Final residual = 8.27533e-06, No Iterations 6
Pressure gradient source: uncorrected Ubar = 1, pressure gradient = 0.0270109
GAMG:  Solving for p, Initial residual = 7.88676e-05, Final residual = 7.27076e-06, No Iterations 5
time step continuity errors : sum local = 3.8178e-10, global = -5.59321e-19, cumulative = -3.55073e-17
Pressure gradient source: uncorrected Ubar = 1, pressure gradient = 0.0270114
smoothSolver:  Solving for omega, Initial residual = 5.8092e-06, Final residual = 5.8092e-06, No Iterations 0
smoothSolver:  Solving for k, Initial residual = 2.10146e-05, Final residual = 9.19654e-06, No Iterations 2
ExecutionTime = 5.8421 s  ClockTime = 6 s

Time = 2173s

smoothSolver:  Solving for Ux, Initial residual = 1.35272e-05, Final residual = 8.80832e-06, No Iterations 1
smoothSolver:  Solving for Uy, Initial residual = 0.000119811, Final residual = 7.93458e-06, No Iterations 6
Pressure gradient source: uncorrected Ubar = 1, pressure gradient = 0.0270117
GAMG:  Solving for p, Initial residual = 7.81957e-05, Final residual = 7.05613e-06, No Iterations 5
time step continuity errors : sum local = 3.71457e-10, global = -6.89395e-19, cumulative = -3.61967e-17
Pressure gradient source: uncorrected Ubar = 1, pressure gradient = 0.0270123
smoothSolver:  Solving for omega, Initial residual = 5.8092e-06, Final residual = 5.8092e-06, No Iterations 0
smoothSolver:  Solving for k, Initial residual = 2.09435e-05, Final residual = 9.16538e-06, No Iterations 2
ExecutionTime = 5.8446 s  ClockTime = 6 s

Time = 2174s

smoothSolver:  Solving for Ux, Initial residual = 1.34968e-05, Final residual = 8.78901e-06, No Iterations 1
smoothSolver:  Solving for Uy, Initial residual = 0.000115392, Final residual = 7.58142e-06, No Iterations 6
Pressure gradient source: uncorrected Ubar = 1, pressure gradient = 0.0270126
GAMG:  Solving for p, Initial residual = 7.73342e-05, Final residual = 6.76182e-06, No Iterations 5
time step continuity errors : sum local = 3.56703e-10, global = 1.52123e-18, cumulative = -3.46755e-17
Pressure gradient source: uncorrected Ubar = 1, pressure gradient = 0.0270131
smoothSolver:  Solving for omega, Initial residual = 5.8092e-06, Final residual = 5.8092e-06, No Iterations 0
smoothSolver:  Solving for k, Initial residual = 2.08724e-05, Final residual = 9.13428e-06, No Iterations 2
ExecutionTime = 5.84707 s  ClockTime = 6 s

Time = 2175s

smoothSolver:  Solving for Ux, Initial residual = 1.34664e-05, Final residual = 8.76968e-06, No Iterations 1
smoothSolver:  Solving for Uy, Initial residual = 0.000111195, Final residual = 7.26103e-06, No Iterations 6
Pressure gradient source: uncorrected Ubar = 1, pressure gradient = 0.0270134
GAMG:  Solving for p, Initial residual = 7.63197e-05, Final residual = 6.4763e-06, No Iterations 5
time step continuity errors : sum local = 3.41382e-10, global = -1.08864e-19, cumulative = -3.47843e-17
Pressure gradient source: uncorrected Ubar = 1, pressure gradient = 0.027014
smoothSolver:  Solving for omega, Initial residual = 5.8092e-06, Final residual = 5.8092e-06, No Iterations 0
smoothSolver:  Solving for k, Initial residual = 2.08016e-05, Final residual = 9.10323e-06, No Iterations 2
ExecutionTime = 5.84954 s  ClockTime = 6 s

Time = 2176s

smoothSolver:  Solving for Ux, Initial residual = 1.3436e-05, Final residual = 8.75035e-06, No Iterations 1
smoothSolver:  Solving for Uy, Initial residual = 0.000107493, Final residual = 6.9913e-06, No Iterations 6
Pressure gradient source: uncorrected Ubar = 1, pressure gradient = 0.0270143
GAMG:  Solving for p, Initial residual = 7.51708e-05, Final residual = 6.22658e-06, No Iterations 5
time step continuity errors : sum local = 3.26735e-10, global = 1.37138e-18, cumulative = -3.3413e-17
Pressure gradient source: uncorrected Ubar = 1, pressure gradient = 0.0270148
smoothSolver:  Solving for omega, Initial residual = 5.8092e-06, Final residual = 5.8092e-06, No Iterations 0
smoothSolver:  Solving for k, Initial residual = 2.07308e-05, Final residual = 9.07223e-06, No Iterations 2
ExecutionTime = 5.85204 s  ClockTime = 6 s

Time = 2177s

smoothSolver:  Solving for Ux, Initial residual = 1.34056e-05, Final residual = 8.73102e-06, No Iterations 1
smoothSolver:  Solving for Uy, Initial residual = 0.000104253, Final residual = 6.76622e-06, No Iterations 6
Pressure gradient source: uncorrected Ubar = 1, pressure gradient = 0.0270151
GAMG:  Solving for p, Initial residual = 7.39848e-05, Final residual = 6.06761e-06, No Iterations 5
time step continuity errors : sum local = 3.15847e-10, global = 3.97127e-18, cumulative = -2.94417e-17
Pressure gradient source: uncorrected Ubar = 1, pressure gradient = 0.0270157
smoothSolver:  Solving for omega, Initial residual = 5.8092e-06, Final residual = 5.8092e-06, No Iterations 0
smoothSolver:  Solving for k, Initial residual = 2.06602e-05, Final residual = 9.04128e-06, No Iterations 2
ExecutionTime = 5.85453 s  ClockTime = 6 s

Time = 2178s

smoothSolver:  Solving for Ux, Initial residual = 1.33751e-05, Final residual = 8.71168e-06, No Iterations 1
smoothSolver:  Solving for Uy, Initial residual = 0.000101321, Final residual = 6.57402e-06, No Iterations 6
Pressure gradient source: uncorrected Ubar = 1, pressure gradient = 0.0270159
GAMG:  Solving for p, Initial residual = 7.2815e-05, Final residual = 5.98182e-06, No Iterations 5
time step continuity errors : sum local = 3.0821e-10, global = 2.13466e-18, cumulative = -2.7307e-17
Pressure gradient source: uncorrected Ubar = 1, pressure gradient = 0.0270165
smoothSolver:  Solving for omega, Initial residual = 5.8092e-06, Final residual = 5.8092e-06, No Iterations 0
smoothSolver:  Solving for k, Initial residual = 2.05896e-05, Final residual = 9.0104e-06, No Iterations 2
ExecutionTime = 5.857 s  ClockTime = 6 s

Time = 2179s

smoothSolver:  Solving for Ux, Initial residual = 1.33447e-05, Final residual = 8.69234e-06, No Iterations 1
smoothSolver:  Solving for Uy, Initial residual = 9.86262e-05, Final residual = 9.93589e-06, No Iterations 5
Pressure gradient source: uncorrected Ubar = 1, pressure gradient = 0.0270168
GAMG:  Solving for p, Initial residual = 7.12633e-05, Final residual = 6.0314e-06, No Iterations 5
time step continuity errors : sum local = 3.08064e-10, global = 1.57351e-18, cumulative = -2.57335e-17
Pressure gradient source: uncorrected Ubar = 1, pressure gradient = 0.0270173
smoothSolver:  Solving for omega, Initial residual = 5.8092e-06, Final residual = 5.8092e-06, No Iterations 0
smoothSolver:  Solving for k, Initial residual = 2.05193e-05, Final residual = 8.97956e-06, No Iterations 2
ExecutionTime = 5.85946 s  ClockTime = 6 s


SIMPLE solution converged in 2179 iterations

End

