/*---------------------------------------------------------------------------*\
  =========                 |
  \\      /  F ield         | OpenFOAM: The Open Source CFD Toolbox
   \\    /   O peration     | Website:  https://openfoam.org
    \\  /    A nd           | Version:  10
     \\/     M anipulation  |
\*---------------------------------------------------------------------------*/
Build  : 10-e450dce21ea5
Exec   : blockMesh
Date   : Jan 16 2023
Time   : 11:43:23
Host   : "w530-R9YK46P"
PID    : 14335
I/O    : uncollated
Case   : /home/jdmezazeron/gitDanielMezaZ/turbulenceVisualized/Data/SimulationFiles/E17_Re3162
nProcs : 1
sigFpe : Enabling floating point exception trapping (FOAM_SIGFPE).
fileModificationChecking : Monitoring run-time modified files using timeStampMaster (fileModificationSkew 10)
allowSystemOperations : Allowing user-supplied system call operations

// * * * * * * * * * * * * * * * * * * * * * * * * * * * * * * * * * * * * * //
Create time

Reading "blockMeshDict"

Creating block mesh from
    "system/blockMeshDict"
Creating block edges
No non-planar block faces defined
Creating topology blocks
Creating topology patches

Creating block mesh topology

Check topology

	Basic statistics
		Number of internal faces : 0
		Number of boundary faces : 6
		Number of defined boundary faces : 6
		Number of undefined boundary faces : 0
	Checking patch -> block consistency

Creating block offsets
Creating merge list .

Creating polyMesh from blockMesh
Creating patches
Creating cells
Creating points with scale 1
    Block 0 cell size :
        i : 0.5
        j : 0.00921276 .. 0.036851
        k : 2

Detected cyclic patches; ordering boundary faces

Writing polyMesh
----------------
Mesh Information
----------------
  boundingBox: (-1 0 -1) (1 1 1)
  nPoints: 510
  nCells: 200
  nFaces: 854
  nInternalFaces: 346
----------------
Patches
----------------
  patch 0 (start: 346 size: 50) name: inlet
  patch 1 (start: 396 size: 50) name: outlet
  patch 2 (start: 446 size: 4) name: fixedWalls-bottom
  patch 3 (start: 450 size: 4) name: fixedWalls-top
  patch 4 (start: 454 size: 400) name: frontAndBack

End

/*---------------------------------------------------------------------------*\
  =========                 |
  \\      /  F ield         | OpenFOAM: The Open Source CFD Toolbox
   \\    /   O peration     | Website:  https://openfoam.org
    \\  /    A nd           | Version:  10
     \\/     M anipulation  |
\*---------------------------------------------------------------------------*/
Build  : 10-e450dce21ea5
Exec   : simpleFoam
Date   : Jan 16 2023
Time   : 11:43:23
Host   : "w530-R9YK46P"
PID    : 14336
I/O    : uncollated
Case   : /home/jdmezazeron/gitDanielMezaZ/turbulenceVisualized/Data/SimulationFiles/E17_Re3162
nProcs : 1
sigFpe : Enabling floating point exception trapping (FOAM_SIGFPE).
fileModificationChecking : Monitoring run-time modified files using timeStampMaster (fileModificationSkew 10)
allowSystemOperations : Allowing user-supplied system call operations

// * * * * * * * * * * * * * * * * * * * * * * * * * * * * * * * * * * * * * //
Create time

Create mesh for time = 0


SIMPLE: Convergence criteria found
        U: tolerance 0.01
        p: tolerance 0.01
        omega: tolerance 0.0001

Reading field p

Reading field U

Reading/calculating face flux field phi

Selecting viscosity model Newtonian
Selecting turbulence model type RAS
Selecting RAS turbulence model kOmegaSST
Selecting patchDistMethod meshWave
RAS
{
    RASModel        kOmegaSST;
    turbulence      on;
    printCoeffs     on;
    alphaK1         0.85;
    alphaK2         1;
    alphaOmega1     0.5;
    alphaOmega2     0.856;
    gamma1          0.555556;
    gamma2          0.44;
    beta1           0.075;
    beta2           0.0828;
    betaStar        0.09;
    a1              0.31;
    b1              1;
    c1              10;
    F3              false;
}

No MRF models present

--> FOAM Warning : Creating fvModels from "system/fvOptions" rather than constant/fvModels
No fvModels present
--> FOAM Warning : Creating fvConstraints from "system/fvOptions"

Selecting finite volume constraint type meanVelocityForce
    Name: momentumSource
    - selecting all cells
    - selected 200 cell(s) with volume 4
    Initial pressure gradient = 0


Starting time loop

turbulenceFields stressComponents: storing fields:
    R

Time = 1s

smoothSolver:  Solving for Ux, Initial residual = 0, Final residual = 0, No Iterations 0
smoothSolver:  Solving for Uy, Initial residual = 0, Final residual = 0, No Iterations 0
Pressure gradient source: uncorrected Ubar = 0, pressure gradient = 3.13338
GAMG:  Solving for p, Initial residual = 0.999986, Final residual = 0.0871846, No Iterations 2
time step continuity errors : sum local = 5.84713e-17, global = -2.11249e-18, cumulative = -2.11249e-18
Pressure gradient source: uncorrected Ubar = 0.869371, pressure gradient = 0.409309
smoothSolver:  Solving for omega, Initial residual = 0.0671551, Final residual = 0.00524524, No Iterations 1
bounding omega, min: -8.21516 max: 2384.69 average: 92.4839
smoothSolver:  Solving for k, Initial residual = 1, Final residual = 0.0856539, No Iterations 1
ExecutionTime = 0.013098 s  ClockTime = 0 s

Time = 2s

smoothSolver:  Solving for Ux, Initial residual = 0.233844, Final residual = 0.0175783, No Iterations 6
smoothSolver:  Solving for Uy, Initial residual = 1, Final residual = 0.0836191, No Iterations 2
Pressure gradient source: uncorrected Ubar = 1.32016, pressure gradient = -2.37743
GAMG:  Solving for p, Initial residual = 1, Final residual = 0.0864238, No Iterations 7
time step continuity errors : sum local = 0.00542927, global = 2.33103e-18, cumulative = 2.18543e-19
Pressure gradient source: uncorrected Ubar = 1.06077, pressure gradient = -0.119653
smoothSolver:  Solving for omega, Initial residual = 0.0603392, Final residual = 0.00122543, No Iterations 1
smoothSolver:  Solving for k, Initial residual = 0.261636, Final residual = 0.0188253, No Iterations 3
ExecutionTime = 0.015274 s  ClockTime = 0 s

Time = 3s

smoothSolver:  Solving for Ux, Initial residual = 0.203532, Final residual = 0.015694, No Iterations 5
smoothSolver:  Solving for Uy, Initial residual = 0.525028, Final residual = 0.0245575, No Iterations 3
Pressure gradient source: uncorrected Ubar = 0.897697, pressure gradient = 0.96399
GAMG:  Solving for p, Initial residual = 0.166707, Final residual = 0.0126684, No Iterations 5
time step continuity errors : sum local = 0.00284085, global = 2.29038e-18, cumulative = 2.50892e-18
Pressure gradient source: uncorrected Ubar = 0.986003, pressure gradient = 0.0286096
smoothSolver:  Solving for omega, Initial residual = 0.00941408, Final residual = 0.00058317, No Iterations 1
smoothSolver:  Solving for k, Initial residual = 0.119221, Final residual = 0.00813156, No Iterations 2
ExecutionTime = 0.017235 s  ClockTime = 0 s

Time = 4s

smoothSolver:  Solving for Ux, Initial residual = 0.076643, Final residual = 0.0053612, No Iterations 4
smoothSolver:  Solving for Uy, Initial residual = 0.386281, Final residual = 0.0183444, No Iterations 3
Pressure gradient source: uncorrected Ubar = 1.0095, pressure gradient = -0.0750678
GAMG:  Solving for p, Initial residual = 0.0970415, Final residual = 0.00689466, No Iterations 8
time step continuity errors : sum local = 0.00172015, global = 1.8838e-18, cumulative = 4.39272e-18
Pressure gradient source: uncorrected Ubar = 1.00115, pressure gradient = 0.0160427
smoothSolver:  Solving for omega, Initial residual = 0.00841984, Final residual = 0.000344588, No Iterations 1
smoothSolver:  Solving for k, Initial residual = 0.0617764, Final residual = 0.0026614, No Iterations 3
ExecutionTime = 0.019303 s  ClockTime = 0 s

Time = 5s

smoothSolver:  Solving for Ux, Initial residual = 0.0428776, Final residual = 0.00364174, No Iterations 4
smoothSolver:  Solving for Uy, Initial residual = 0.442718, Final residual = 0.0203247, No Iterations 3
Pressure gradient source: uncorrected Ubar = 1.00268, pressure gradient = -0.0138816
GAMG:  Solving for p, Initial residual = 0.14962, Final residual = 0.0122049, No Iterations 5
time step continuity errors : sum local = 0.00153035, global = 1.00988e-17, cumulative = 1.44915e-17
Pressure gradient source: uncorrected Ubar = 1.00035, pressure gradient = 0.0121592
smoothSolver:  Solving for omega, Initial residual = 0.00345081, Final residual = 0.000207183, No Iterations 1
smoothSolver:  Solving for k, Initial residual = 0.0459544, Final residual = 0.00312807, No Iterations 3
ExecutionTime = 0.021436 s  ClockTime = 0 s

Time = 6s

smoothSolver:  Solving for Ux, Initial residual = 0.0273158, Final residual = 0.00187236, No Iterations 5
smoothSolver:  Solving for Uy, Initial residual = 0.570795, Final residual = 0.0231982, No Iterations 3
Pressure gradient source: uncorrected Ubar = 1.00193, pressure gradient = -0.00960036
GAMG:  Solving for p, Initial residual = 0.140704, Final residual = 0.00801927, No Iterations 10
time step continuity errors : sum local = 0.000660664, global = 2.04643e-18, cumulative = 1.65379e-17
Pressure gradient source: uncorrected Ubar = 1.00026, pressure gradient = 0.00920859
smoothSolver:  Solving for omega, Initial residual = 0.0022648, Final residual = 0.000141754, No Iterations 1
smoothSolver:  Solving for k, Initial residual = 0.0382254, Final residual = 0.00347974, No Iterations 3
ExecutionTime = 0.024364 s  ClockTime = 0 s

Time = 7s

smoothSolver:  Solving for Ux, Initial residual = 0.0197851, Final residual = 0.00154361, No Iterations 5
smoothSolver:  Solving for Uy, Initial residual = 0.704166, Final residual = 0.0321068, No Iterations 3
Pressure gradient source: uncorrected Ubar = 1.00102, pressure gradient = -0.00251173
GAMG:  Solving for p, Initial residual = 0.116857, Final residual = 0.0113617, No Iterations 8
time step continuity errors : sum local = 0.000750368, global = -8.43475e-18, cumulative = 8.10315e-18
Pressure gradient source: uncorrected Ubar = 1.00013, pressure gradient = 0.00772882
smoothSolver:  Solving for omega, Initial residual = 0.00119384, Final residual = 0.00010387, No Iterations 1
smoothSolver:  Solving for k, Initial residual = 0.0391813, Final residual = 0.00357491, No Iterations 4
ExecutionTime = 0.026582 s  ClockTime = 0 s

Time = 8s

smoothSolver:  Solving for Ux, Initial residual = 0.01543, Final residual = 0.00136205, No Iterations 5
smoothSolver:  Solving for Uy, Initial residual = 0.717366, Final residual = 0.0389375, No Iterations 3
Pressure gradient source: uncorrected Ubar = 1.00099, pressure gradient = -0.00378911
GAMG:  Solving for p, Initial residual = 0.0993587, Final residual = 0.00539813, No Iterations 4
time step continuity errors : sum local = 0.000364714, global = -4.6824e-18, cumulative = 3.42075e-18
Pressure gradient source: uncorrected Ubar = 1.00012, pressure gradient = 0.00638523
smoothSolver:  Solving for omega, Initial residual = 0.000726002, Final residual = 7.10519e-05, No Iterations 1
smoothSolver:  Solving for k, Initial residual = 0.0349197, Final residual = 0.00188664, No Iterations 4
ExecutionTime = 0.028597 s  ClockTime = 0 s

Time = 9s

smoothSolver:  Solving for Ux, Initial residual = 0.0130667, Final residual = 0.00124741, No Iterations 5
smoothSolver:  Solving for Uy, Initial residual = 0.723891, Final residual = 0.0371251, No Iterations 3
Pressure gradient source: uncorrected Ubar = 1.00045, pressure gradient = 0.00101765
GAMG:  Solving for p, Initial residual = 0.081343, Final residual = 0.00483575, No Iterations 7
time step continuity errors : sum local = 0.000322853, global = 2.30221e-18, cumulative = 5.72296e-18
Pressure gradient source: uncorrected Ubar = 1.00004, pressure gradient = 0.00591658
smoothSolver:  Solving for omega, Initial residual = 0.000432472, Final residual = 2.7378e-05, No Iterations 2
smoothSolver:  Solving for k, Initial residual = 0.0329052, Final residual = 0.00236498, No Iterations 4
ExecutionTime = 0.030616 s  ClockTime = 0 s

Time = 10s

smoothSolver:  Solving for Ux, Initial residual = 0.0117452, Final residual = 0.000790655, No Iterations 6
smoothSolver:  Solving for Uy, Initial residual = 0.558368, Final residual = 0.0272749, No Iterations 3
Pressure gradient source: uncorrected Ubar = 1.00032, pressure gradient = 0.00200995
GAMG:  Solving for p, Initial residual = 0.0751891, Final residual = 0.00713085, No Iterations 8
time step continuity errors : sum local = 0.000383628, global = -3.68417e-18, cumulative = 2.03879e-18
Pressure gradient source: uncorrected Ubar = 1.00003, pressure gradient = 0.00555777
smoothSolver:  Solving for omega, Initial residual = 0.00027345, Final residual = 2.04412e-05, No Iterations 2
smoothSolver:  Solving for k, Initial residual = 0.0314925, Final residual = 0.00214658, No Iterations 5
ExecutionTime = 0.032725 s  ClockTime = 0 s

Time = 11s

smoothSolver:  Solving for Ux, Initial residual = 0.0108203, Final residual = 0.000761131, No Iterations 6
smoothSolver:  Solving for Uy, Initial residual = 0.422942, Final residual = 0.0185745, No Iterations 3
Pressure gradient source: uncorrected Ubar = 1.00028, pressure gradient = 0.00192548
GAMG:  Solving for p, Initial residual = 0.0763213, Final residual = 0.0064935, No Iterations 7
time step continuity errors : sum local = 0.000296297, global = 6.20367e-18, cumulative = 8.24246e-18
Pressure gradient source: uncorrected Ubar = 1.00003, pressure gradient = 0.00522778
smoothSolver:  Solving for omega, Initial residual = 0.000173868, Final residual = 1.46757e-05, No Iterations 2
smoothSolver:  Solving for k, Initial residual = 0.026683, Final residual = 0.00223923, No Iterations 4
ExecutionTime = 0.03478 s  ClockTime = 0 s

Time = 12s

smoothSolver:  Solving for Ux, Initial residual = 0.0100845, Final residual = 0.000724729, No Iterations 6
smoothSolver:  Solving for Uy, Initial residual = 0.385332, Final residual = 0.0175981, No Iterations 3
Pressure gradient source: uncorrected Ubar = 1.00026, pressure gradient = 0.00180359
GAMG:  Solving for p, Initial residual = 0.0836918, Final residual = 0.00571579, No Iterations 7
time step continuity errors : sum local = 0.000207902, global = -1.3836e-17, cumulative = -5.59351e-18
Pressure gradient source: uncorrected Ubar = 1.00003, pressure gradient = 0.00488765
smoothSolver:  Solving for omega, Initial residual = 0.000120637, Final residual = 9.08101e-06, No Iterations 3
smoothSolver:  Solving for k, Initial residual = 0.0223136, Final residual = 0.00153895, No Iterations 5
ExecutionTime = 0.037006 s  ClockTime = 0 s

Time = 13s

smoothSolver:  Solving for Ux, Initial residual = 0.00927697, Final residual = 0.000687868, No Iterations 6
smoothSolver:  Solving for Uy, Initial residual = 0.406876, Final residual = 0.0198335, No Iterations 3
Pressure gradient source: uncorrected Ubar = 1.00022, pressure gradient = 0.00201637
GAMG:  Solving for p, Initial residual = 0.0903171, Final residual = 0.00521575, No Iterations 7
time step continuity errors : sum local = 0.000143591, global = 6.08678e-18, cumulative = 4.93272e-19
Pressure gradient source: uncorrected Ubar = 1.00002, pressure gradient = 0.00460573
smoothSolver:  Solving for omega, Initial residual = 7.79714e-05, Final residual = 7.27382e-06, No Iterations 3
smoothSolver:  Solving for k, Initial residual = 0.0172624, Final residual = 0.00114741, No Iterations 5
ExecutionTime = 0.039299 s  ClockTime = 0 s

Time = 14s

smoothSolver:  Solving for Ux, Initial residual = 0.0084683, Final residual = 0.000653536, No Iterations 6
smoothSolver:  Solving for Uy, Initial residual = 0.463314, Final residual = 0.0240501, No Iterations 3
Pressure gradient source: uncorrected Ubar = 1.00022, pressure gradient = 0.00156358
GAMG:  Solving for p, Initial residual = 0.0928257, Final residual = 0.00698879, No Iterations 7
time step continuity errors : sum local = 0.000143965, global = 5.20271e-18, cumulative = 5.69599e-18
Pressure gradient source: uncorrected Ubar = 1.00002, pressure gradient = 0.00428266
smoothSolver:  Solving for omega, Initial residual = 5.73139e-05, Final residual = 6.82605e-06, No Iterations 3
smoothSolver:  Solving for k, Initial residual = 0.013969, Final residual = 0.00123919, No Iterations 4
ExecutionTime = 0.041758 s  ClockTime = 0 s

Time = 15s

smoothSolver:  Solving for Ux, Initial residual = 0.00773947, Final residual = 0.000621106, No Iterations 6
smoothSolver:  Solving for Uy, Initial residual = 0.541489, Final residual = 0.0273846, No Iterations 3
Pressure gradient source: uncorrected Ubar = 1.00015, pressure gradient = 0.00221759
GAMG:  Solving for p, Initial residual = 0.0997161, Final residual = 0.00581961, No Iterations 7
time step continuity errors : sum local = 9.574e-05, global = -2.82898e-18, cumulative = 2.867e-18
Pressure gradient source: uncorrected Ubar = 1.00002, pressure gradient = 0.00407266
smoothSolver:  Solving for omega, Initial residual = 4.24225e-05, Final residual = 5.9518e-06, No Iterations 3
smoothSolver:  Solving for k, Initial residual = 0.0118913, Final residual = 0.000830389, No Iterations 5
ExecutionTime = 0.043937 s  ClockTime = 0 s

Time = 16s

smoothSolver:  Solving for Ux, Initial residual = 0.00720149, Final residual = 0.000592978, No Iterations 6
smoothSolver:  Solving for Uy, Initial residual = 0.532069, Final residual = 0.0265689, No Iterations 3
Pressure gradient source: uncorrected Ubar = 1.00009, pressure gradient = 0.00272456
GAMG:  Solving for p, Initial residual = 0.0973969, Final residual = 0.00574322, No Iterations 7
time step continuity errors : sum local = 8.56958e-05, global = 8.63592e-18, cumulative = 1.15029e-17
Pressure gradient source: uncorrected Ubar = 1.00001, pressure gradient = 0.00395152
smoothSolver:  Solving for omega, Initial residual = 3.18096e-05, Final residual = 6.73254e-06, No Iterations 2
smoothSolver:  Solving for k, Initial residual = 0.0102748, Final residual = 0.00067476, No Iterations 5
ExecutionTime = 0.046003 s  ClockTime = 0 s

Time = 17s

smoothSolver:  Solving for Ux, Initial residual = 0.00679683, Final residual = 0.000570764, No Iterations 6
smoothSolver:  Solving for Uy, Initial residual = 0.48912, Final residual = 0.0237647, No Iterations 3
Pressure gradient source: uncorrected Ubar = 1.00007, pressure gradient = 0.00289011
GAMG:  Solving for p, Initial residual = 0.0911692, Final residual = 0.00720965, No Iterations 7
time step continuity errors : sum local = 9.49757e-05, global = -2.50023e-18, cumulative = 9.0027e-18
Pressure gradient source: uncorrected Ubar = 1.00001, pressure gradient = 0.0038616
smoothSolver:  Solving for omega, Initial residual = 2.70185e-05, Final residual = 7.27232e-06, No Iterations 2
smoothSolver:  Solving for k, Initial residual = 0.00936392, Final residual = 0.00061083, No Iterations 5
ExecutionTime = 0.048081 s  ClockTime = 0 s

Time = 18s

smoothSolver:  Solving for Ux, Initial residual = 0.00649141, Final residual = 0.000554274, No Iterations 6
smoothSolver:  Solving for Uy, Initial residual = 0.476222, Final residual = 0.0230021, No Iterations 3
Pressure gradient source: uncorrected Ubar = 1.00006, pressure gradient = 0.00293093
GAMG:  Solving for p, Initial residual = 0.0864885, Final residual = 0.00689034, No Iterations 7
time step continuity errors : sum local = 8.12285e-05, global = -5.12984e-18, cumulative = 3.87285e-18
Pressure gradient source: uncorrected Ubar = 1, pressure gradient = 0.00378929
smoothSolver:  Solving for omega, Initial residual = 2.33316e-05, Final residual = 6.44441e-06, No Iterations 2
smoothSolver:  Solving for k, Initial residual = 0.00841419, Final residual = 0.00054359, No Iterations 5
ExecutionTime = 0.050116 s  ClockTime = 0 s

Time = 19s

smoothSolver:  Solving for Ux, Initial residual = 0.00622504, Final residual = 0.000540188, No Iterations 6
smoothSolver:  Solving for Uy, Initial residual = 0.488933, Final residual = 0.0226812, No Iterations 3
Pressure gradient source: uncorrected Ubar = 1.00005, pressure gradient = 0.003102
GAMG:  Solving for p, Initial residual = 0.0829371, Final residual = 0.00772621, No Iterations 6
time step continuity errors : sum local = 8.65025e-05, global = -1.41999e-17, cumulative = -1.03271e-17
Pressure gradient source: uncorrected Ubar = 1, pressure gradient = 0.00374099
smoothSolver:  Solving for omega, Initial residual = 2.23432e-05, Final residual = 6.2131e-06, No Iterations 2
smoothSolver:  Solving for k, Initial residual = 0.00763527, Final residual = 0.00075343, No Iterations 4
ExecutionTime = 0.052155 s  ClockTime = 0 s

Time = 20s

smoothSolver:  Solving for Ux, Initial residual = 0.0059653, Final residual = 0.000525257, No Iterations 6
smoothSolver:  Solving for Uy, Initial residual = 0.549126, Final residual = 0.0262506, No Iterations 3
Pressure gradient source: uncorrected Ubar = 1.00003, pressure gradient = 0.00321303
GAMG:  Solving for p, Initial residual = 0.0820219, Final residual = 0.00667666, No Iterations 6
time step continuity errors : sum local = 6.48281e-05, global = 2.859e-18, cumulative = -7.46807e-18
Pressure gradient source: uncorrected Ubar = 1, pressure gradient = 0.00371092
smoothSolver:  Solving for omega, Initial residual = 1.97037e-05, Final residual = 9.92334e-06, No Iterations 1
smoothSolver:  Solving for k, Initial residual = 0.00687424, Final residual = 0.000396375, No Iterations 5
ExecutionTime = 0.054367 s  ClockTime = 0 s

Time = 21s

smoothSolver:  Solving for Ux, Initial residual = 0.00575273, Final residual = 0.000511391, No Iterations 6
smoothSolver:  Solving for Uy, Initial residual = 0.58639, Final residual = 0.0287828, No Iterations 3
Pressure gradient source: uncorrected Ubar = 1.00002, pressure gradient = 0.00345284
GAMG:  Solving for p, Initial residual = 0.0775003, Final residual = 0.00690909, No Iterations 4
time step continuity errors : sum local = 5.98237e-05, global = 9.57655e-18, cumulative = 2.10848e-18
Pressure gradient source: uncorrected Ubar = 1, pressure gradient = 0.00371285
smoothSolver:  Solving for omega, Initial residual = 2.00078e-05, Final residual = 9.81945e-06, No Iterations 1
smoothSolver:  Solving for k, Initial residual = 0.00635733, Final residual = 0.000401544, No Iterations 5
ExecutionTime = 0.056962 s  ClockTime = 0 s

Time = 22s

smoothSolver:  Solving for Ux, Initial residual = 0.00557543, Final residual = 0.000497986, No Iterations 6
smoothSolver:  Solving for Uy, Initial residual = 0.585187, Final residual = 0.0298335, No Iterations 3
Pressure gradient source: uncorrected Ubar = 1.00001, pressure gradient = 0.0035905
GAMG:  Solving for p, Initial residual = 0.0748526, Final residual = 0.00637285, No Iterations 4
time step continuity errors : sum local = 4.89811e-05, global = -2.09302e-18, cumulative = 1.54661e-20
Pressure gradient source: uncorrected Ubar = 0.999999, pressure gradient = 0.00372869
smoothSolver:  Solving for omega, Initial residual = 1.9227e-05, Final residual = 5.8394e-06, No Iterations 2
smoothSolver:  Solving for k, Initial residual = 0.00609076, Final residual = 0.00039953, No Iterations 5
ExecutionTime = 0.059021 s  ClockTime = 0 s

Time = 23s

smoothSolver:  Solving for Ux, Initial residual = 0.00546371, Final residual = 0.00048384, No Iterations 6
smoothSolver:  Solving for Uy, Initial residual = 0.547297, Final residual = 0.0285234, No Iterations 3
Pressure gradient source: uncorrected Ubar = 1.00001, pressure gradient = 0.00363712
GAMG:  Solving for p, Initial residual = 0.0736787, Final residual = 0.00540721, No Iterations 4
time step continuity errors : sum local = 3.63113e-05, global = -2.39922e-18, cumulative = -2.38375e-18
Pressure gradient source: uncorrected Ubar = 0.999999, pressure gradient = 0.0037459
smoothSolver:  Solving for omega, Initial residual = 1.72602e-05, Final residual = 8.83392e-06, No Iterations 1
smoothSolver:  Solving for k, Initial residual = 0.00560976, Final residual = 0.00038562, No Iterations 5
ExecutionTime = 0.061048 s  ClockTime = 0 s

Time = 24s

smoothSolver:  Solving for Ux, Initial residual = 0.00537526, Final residual = 0.000470286, No Iterations 6
smoothSolver:  Solving for Uy, Initial residual = 0.490616, Final residual = 0.025102, No Iterations 3
Pressure gradient source: uncorrected Ubar = 0.999998, pressure gradient = 0.00378346
GAMG:  Solving for p, Initial residual = 0.0719057, Final residual = 0.0047379, No Iterations 4
time step continuity errors : sum local = 2.71597e-05, global = 1.1203e-17, cumulative = 8.81926e-18
Pressure gradient source: uncorrected Ubar = 0.999998, pressure gradient = 0.00377707
smoothSolver:  Solving for omega, Initial residual = 1.78652e-05, Final residual = 9.14534e-06, No Iterations 1
smoothSolver:  Solving for k, Initial residual = 0.00518004, Final residual = 0.000318168, No Iterations 5
ExecutionTime = 0.063146 s  ClockTime = 0 s

Time = 25s

smoothSolver:  Solving for Ux, Initial residual = 0.00527824, Final residual = 0.000456634, No Iterations 6
smoothSolver:  Solving for Uy, Initial residual = 0.43878, Final residual = 0.0220144, No Iterations 3
Pressure gradient source: uncorrected Ubar = 0.999994, pressure gradient = 0.00387377
GAMG:  Solving for p, Initial residual = 0.0726558, Final residual = 0.00406749, No Iterations 4
time step continuity errors : sum local = 1.97407e-05, global = -4.29552e-18, cumulative = 4.52375e-18
Pressure gradient source: uncorrected Ubar = 0.999998, pressure gradient = 0.00381388
smoothSolver:  Solving for omega, Initial residual = 1.80518e-05, Final residual = 9.65969e-06, No Iterations 1
smoothSolver:  Solving for k, Initial residual = 0.00494197, Final residual = 0.000486637, No Iterations 4
ExecutionTime = 0.065142 s  ClockTime = 0 s

Time = 26s

smoothSolver:  Solving for Ux, Initial residual = 0.00517386, Final residual = 0.000443198, No Iterations 6
smoothSolver:  Solving for Uy, Initial residual = 0.396051, Final residual = 0.0192417, No Iterations 3
Pressure gradient source: uncorrected Ubar = 0.999993, pressure gradient = 0.00393571
GAMG:  Solving for p, Initial residual = 0.0736265, Final residual = 0.00332939, No Iterations 4
time step continuity errors : sum local = 1.37477e-05, global = -2.45321e-18, cumulative = 2.07054e-18
Pressure gradient source: uncorrected Ubar = 0.999998, pressure gradient = 0.00385163
smoothSolver:  Solving for omega, Initial residual = 1.8102e-05, Final residual = 9.66674e-06, No Iterations 1
smoothSolver:  Solving for k, Initial residual = 0.00480191, Final residual = 0.000344591, No Iterations 5
ExecutionTime = 0.067204 s  ClockTime = 0 s

Time = 27s

smoothSolver:  Solving for Ux, Initial residual = 0.00505703, Final residual = 0.000429106, No Iterations 6
smoothSolver:  Solving for Uy, Initial residual = 0.361959, Final residual = 0.0170726, No Iterations 3
Pressure gradient source: uncorrected Ubar = 0.999993, pressure gradient = 0.00396219
GAMG:  Solving for p, Initial residual = 0.0736363, Final residual = 0.00265387, No Iterations 4
time step continuity errors : sum local = 9.00863e-06, global = -3.48332e-18, cumulative = -1.41278e-18
Pressure gradient source: uncorrected Ubar = 0.999998, pressure gradient = 0.00388533
smoothSolver:  Solving for omega, Initial residual = 1.81296e-05, Final residual = 9.21999e-06, No Iterations 1
smoothSolver:  Solving for k, Initial residual = 0.00455167, Final residual = 0.000314763, No Iterations 5
ExecutionTime = 0.069154 s  ClockTime = 0 s

Time = 28s

smoothSolver:  Solving for Ux, Initial residual = 0.00494351, Final residual = 0.000415577, No Iterations 6
smoothSolver:  Solving for Uy, Initial residual = 0.342902, Final residual = 0.0156798, No Iterations 3
Pressure gradient source: uncorrected Ubar = 0.99999, pressure gradient = 0.00404749
GAMG:  Solving for p, Initial residual = 0.0774929, Final residual = 0.00773446, No Iterations 3
time step continuity errors : sum local = 2.14906e-05, global = -8.66979e-18, cumulative = -1.00826e-17
Pressure gradient source: uncorrected Ubar = 0.999998, pressure gradient = 0.00392345
smoothSolver:  Solving for omega, Initial residual = 1.82418e-05, Final residual = 9.51728e-06, No Iterations 1
smoothSolver:  Solving for k, Initial residual = 0.00420865, Final residual = 0.000299942, No Iterations 5
ExecutionTime = 0.071275 s  ClockTime = 0 s

Time = 29s

smoothSolver:  Solving for Ux, Initial residual = 0.00483227, Final residual = 0.000402625, No Iterations 6
smoothSolver:  Solving for Uy, Initial residual = 0.333385, Final residual = 0.0155441, No Iterations 3
Pressure gradient source: uncorrected Ubar = 0.999986, pressure gradient = 0.00417244
GAMG:  Solving for p, Initial residual = 0.0794775, Final residual = 0.00256893, No Iterations 4
time step continuity errors : sum local = 6.02085e-06, global = 5.02338e-18, cumulative = -5.05919e-18
Pressure gradient source: uncorrected Ubar = 0.999997, pressure gradient = 0.00397115
smoothSolver:  Solving for omega, Initial residual = 1.83272e-05, Final residual = 9.4548e-06, No Iterations 1
smoothSolver:  Solving for k, Initial residual = 0.00389866, Final residual = 0.000286449, No Iterations 5
ExecutionTime = 0.074048 s  ClockTime = 0 s

Time = 30s

smoothSolver:  Solving for Ux, Initial residual = 0.00471183, Final residual = 0.000388834, No Iterations 6
smoothSolver:  Solving for Uy, Initial residual = 0.309378, Final residual = 0.0149326, No Iterations 3
Pressure gradient source: uncorrected Ubar = 0.99999, pressure gradient = 0.00413842
GAMG:  Solving for p, Initial residual = 0.0798121, Final residual = 0.00270296, No Iterations 4
time step continuity errors : sum local = 5.41635e-06, global = 9.79338e-18, cumulative = 4.73419e-18
Pressure gradient source: uncorrected Ubar = 0.999998, pressure gradient = 0.00400543
smoothSolver:  Solving for omega, Initial residual = 1.82235e-05, Final residual = 9.37984e-06, No Iterations 1
smoothSolver:  Solving for k, Initial residual = 0.00357752, Final residual = 0.000224706, No Iterations 5
ExecutionTime = 0.076207 s  ClockTime = 0 s

Time = 31s

smoothSolver:  Solving for Ux, Initial residual = 0.00459746, Final residual = 0.00037606, No Iterations 6
smoothSolver:  Solving for Uy, Initial residual = 0.289613, Final residual = 0.0150112, No Iterations 3
Pressure gradient source: uncorrected Ubar = 0.999988, pressure gradient = 0.00422645
GAMG:  Solving for p, Initial residual = 0.0827472, Final residual = 0.00388219, No Iterations 4
time step continuity errors : sum local = 6.30323e-06, global = 1.30858e-17, cumulative = 1.782e-17
Pressure gradient source: uncorrected Ubar = 0.999998, pressure gradient = 0.0040447
smoothSolver:  Solving for omega, Initial residual = 1.82594e-05, Final residual = 9.43915e-06, No Iterations 1
smoothSolver:  Solving for k, Initial residual = 0.00338588, Final residual = 0.000203155, No Iterations 5
ExecutionTime = 0.07821 s  ClockTime = 0 s

Time = 32s

smoothSolver:  Solving for Ux, Initial residual = 0.00448791, Final residual = 0.000364405, No Iterations 6
smoothSolver:  Solving for Uy, Initial residual = 0.272558, Final residual = 0.014611, No Iterations 3
Pressure gradient source: uncorrected Ubar = 0.999981, pressure gradient = 0.0043781
GAMG:  Solving for p, Initial residual = 0.0830633, Final residual = 0.00515355, No Iterations 4
time step continuity errors : sum local = 7.04892e-06, global = -9.08415e-18, cumulative = 8.73585e-18
Pressure gradient source: uncorrected Ubar = 0.999997, pressure gradient = 0.00409715
smoothSolver:  Solving for omega, Initial residual = 1.81449e-05, Final residual = 9.45228e-06, No Iterations 1
smoothSolver:  Solving for k, Initial residual = 0.00314324, Final residual = 0.000184192, No Iterations 5
ExecutionTime = 0.080233 s  ClockTime = 0 s

Time = 33s

smoothSolver:  Solving for Ux, Initial residual = 0.00438077, Final residual = 0.000353389, No Iterations 6
smoothSolver:  Solving for Uy, Initial residual = 0.259915, Final residual = 0.0151825, No Iterations 3
Pressure gradient source: uncorrected Ubar = 0.99998, pressure gradient = 0.00446831
GAMG:  Solving for p, Initial residual = 0.0705738, Final residual = 0.00636336, No Iterations 4
time step continuity errors : sum local = 8.28022e-06, global = 2.65624e-18, cumulative = 1.13921e-17
Pressure gradient source: uncorrected Ubar = 0.999997, pressure gradient = 0.00415277
smoothSolver:  Solving for omega, Initial residual = 1.78965e-05, Final residual = 9.18504e-06, No Iterations 1
smoothSolver:  Solving for k, Initial residual = 0.00292576, Final residual = 0.000282547, No Iterations 4
ExecutionTime = 0.082162 s  ClockTime = 0 s

Time = 34s

smoothSolver:  Solving for Ux, Initial residual = 0.00427545, Final residual = 0.000342404, No Iterations 6
smoothSolver:  Solving for Uy, Initial residual = 0.249814, Final residual = 0.0155979, No Iterations 3
Pressure gradient source: uncorrected Ubar = 0.999983, pressure gradient = 0.00446136
GAMG:  Solving for p, Initial residual = 0.0609824, Final residual = 0.00556981, No Iterations 6
time step continuity errors : sum local = 6.70138e-06, global = 8.87229e-18, cumulative = 2.02644e-17
Pressure gradient source: uncorrected Ubar = 0.999998, pressure gradient = 0.00419782
smoothSolver:  Solving for omega, Initial residual = 1.77845e-05, Final residual = 9.34247e-06, No Iterations 1
smoothSolver:  Solving for k, Initial residual = 0.00273283, Final residual = 0.000265581, No Iterations 4
ExecutionTime = 0.08422 s  ClockTime = 0 s

Time = 35s

smoothSolver:  Solving for Ux, Initial residual = 0.00417451, Final residual = 0.000332233, No Iterations 6
smoothSolver:  Solving for Uy, Initial residual = 0.221177, Final residual = 0.0140543, No Iterations 3
Pressure gradient source: uncorrected Ubar = 0.99998, pressure gradient = 0.00456344
GAMG:  Solving for p, Initial residual = 0.0532489, Final residual = 0.00514824, No Iterations 4
time step continuity errors : sum local = 6.31711e-06, global = 6.95573e-18, cumulative = 2.72201e-17
Pressure gradient source: uncorrected Ubar = 0.999997, pressure gradient = 0.00424867
smoothSolver:  Solving for omega, Initial residual = 1.74797e-05, Final residual = 9.09911e-06, No Iterations 1
smoothSolver:  Solving for k, Initial residual = 0.00263167, Final residual = 0.000169693, No Iterations 5
ExecutionTime = 0.08617 s  ClockTime = 0 s

Time = 36s

smoothSolver:  Solving for Ux, Initial residual = 0.00407297, Final residual = 0.000322209, No Iterations 6
smoothSolver:  Solving for Uy, Initial residual = 0.217475, Final residual = 0.0142495, No Iterations 3
Pressure gradient source: uncorrected Ubar = 0.99998, pressure gradient = 0.00462005
GAMG:  Solving for p, Initial residual = 0.0474508, Final residual = 0.00405075, No Iterations 6
time step continuity errors : sum local = 4.67116e-06, global = -5.04636e-18, cumulative = 2.21738e-17
Pressure gradient source: uncorrected Ubar = 0.999997, pressure gradient = 0.00429834
smoothSolver:  Solving for omega, Initial residual = 1.7213e-05, Final residual = 9.11511e-06, No Iterations 1
smoothSolver:  Solving for k, Initial residual = 0.00253238, Final residual = 0.000191153, No Iterations 5
ExecutionTime = 0.08831 s  ClockTime = 0 s

Time = 37s

smoothSolver:  Solving for Ux, Initial residual = 0.00396813, Final residual = 0.000311427, No Iterations 6
smoothSolver:  Solving for Uy, Initial residual = 0.196973, Final residual = 0.0129312, No Iterations 3
Pressure gradient source: uncorrected Ubar = 0.999988, pressure gradient = 0.00451908
GAMG:  Solving for p, Initial residual = 0.0431904, Final residual = 0.00390073, No Iterations 6
time step continuity errors : sum local = 4.0969e-06, global = 8.92994e-18, cumulative = 3.11037e-17
Pressure gradient source: uncorrected Ubar = 0.999999, pressure gradient = 0.0043256
smoothSolver:  Solving for omega, Initial residual = 1.69562e-05, Final residual = 8.8338e-06, No Iterations 1
smoothSolver:  Solving for k, Initial residual = 0.00237977, Final residual = 0.000182531, No Iterations 5
ExecutionTime = 0.091002 s  ClockTime = 0 s

Time = 38s

smoothSolver:  Solving for Ux, Initial residual = 0.00387135, Final residual = 0.00030149, No Iterations 6
smoothSolver:  Solving for Uy, Initial residual = 0.176619, Final residual = 0.0117495, No Iterations 3
Pressure gradient source: uncorrected Ubar = 0.999987, pressure gradient = 0.00458344
GAMG:  Solving for p, Initial residual = 0.0396876, Final residual = 0.0037856, No Iterations 4
time step continuity errors : sum local = 3.77252e-06, global = 3.44488e-18, cumulative = 3.45486e-17
Pressure gradient source: uncorrected Ubar = 0.999998, pressure gradient = 0.00435591
smoothSolver:  Solving for omega, Initial residual = 1.66217e-05, Final residual = 8.74806e-06, No Iterations 1
smoothSolver:  Solving for k, Initial residual = 0.00226573, Final residual = 0.000172553, No Iterations 5
ExecutionTime = 0.09307 s  ClockTime = 0 s

Time = 39s

smoothSolver:  Solving for Ux, Initial residual = 0.0037789, Final residual = 0.0002924, No Iterations 6
smoothSolver:  Solving for Uy, Initial residual = 0.159577, Final residual = 0.0101288, No Iterations 3
Pressure gradient source: uncorrected Ubar = 0.999984, pressure gradient = 0.00466776
GAMG:  Solving for p, Initial residual = 0.0365298, Final residual = 0.00327176, No Iterations 4
time step continuity errors : sum local = 3.00306e-06, global = 1.08047e-18, cumulative = 3.56291e-17
Pressure gradient source: uncorrected Ubar = 0.999998, pressure gradient = 0.00439164
smoothSolver:  Solving for omega, Initial residual = 1.6259e-05, Final residual = 8.59831e-06, No Iterations 1
smoothSolver:  Solving for k, Initial residual = 0.00216042, Final residual = 0.000139151, No Iterations 5
ExecutionTime = 0.095072 s  ClockTime = 0 s

Time = 40s

smoothSolver:  Solving for Ux, Initial residual = 0.00369279, Final residual = 0.000284174, No Iterations 6
smoothSolver:  Solving for Uy, Initial residual = 0.147312, Final residual = 0.00914797, No Iterations 3
Pressure gradient source: uncorrected Ubar = 0.999982, pressure gradient = 0.00475453
GAMG:  Solving for p, Initial residual = 0.0368864, Final residual = 0.00334317, No Iterations 3
time step continuity errors : sum local = 2.73213e-06, global = 2.64775e-18, cumulative = 3.82768e-17
Pressure gradient source: uncorrected Ubar = 0.999998, pressure gradient = 0.00443275
smoothSolver:  Solving for omega, Initial residual = 1.59175e-05, Final residual = 8.28361e-06, No Iterations 1
smoothSolver:  Solving for k, Initial residual = 0.00208357, Final residual = 0.000141467, No Iterations 5
ExecutionTime = 0.097003 s  ClockTime = 0 s

Time = 41s

smoothSolver:  Solving for Ux, Initial residual = 0.0036084, Final residual = 0.00027624, No Iterations 6
smoothSolver:  Solving for Uy, Initial residual = 0.125637, Final residual = 0.00757805, No Iterations 3
Pressure gradient source: uncorrected Ubar = 0.999983, pressure gradient = 0.00477169
GAMG:  Solving for p, Initial residual = 0.0351629, Final residual = 0.00340354, No Iterations 3
time step continuity errors : sum local = 2.49424e-06, global = -5.91281e-18, cumulative = 3.2364e-17
Pressure gradient source: uncorrected Ubar = 0.999998, pressure gradient = 0.00446903
smoothSolver:  Solving for omega, Initial residual = 1.55537e-05, Final residual = 8.26787e-06, No Iterations 1
smoothSolver:  Solving for k, Initial residual = 0.00199606, Final residual = 0.000126638, No Iterations 5
ExecutionTime = 0.098909 s  ClockTime = 0 s

Time = 42s

smoothSolver:  Solving for Ux, Initial residual = 0.00352693, Final residual = 0.000268616, No Iterations 6
smoothSolver:  Solving for Uy, Initial residual = 0.118892, Final residual = 0.0082141, No Iterations 3
Pressure gradient source: uncorrected Ubar = 0.999985, pressure gradient = 0.00476696
GAMG:  Solving for p, Initial residual = 0.0313796, Final residual = 0.00198858, No Iterations 3
time step continuity errors : sum local = 1.34076e-06, global = 8.40196e-18, cumulative = 4.07659e-17
Pressure gradient source: uncorrected Ubar = 0.999999, pressure gradient = 0.00449832
smoothSolver:  Solving for omega, Initial residual = 1.51884e-05, Final residual = 8.15103e-06, No Iterations 1
smoothSolver:  Solving for k, Initial residual = 0.00192772, Final residual = 0.000113732, No Iterations 5
ExecutionTime = 0.100842 s  ClockTime = 0 s

Time = 43s

smoothSolver:  Solving for Ux, Initial residual = 0.00345284, Final residual = 0.000261712, No Iterations 6
smoothSolver:  Solving for Uy, Initial residual = 0.118327, Final residual = 0.007899, No Iterations 3
Pressure gradient source: uncorrected Ubar = 0.999984, pressure gradient = 0.0048222
GAMG:  Solving for p, Initial residual = 0.0327626, Final residual = 0.00211718, No Iterations 3
time step continuity errors : sum local = 1.36206e-06, global = 7.39277e-18, cumulative = 4.81587e-17
Pressure gradient source: uncorrected Ubar = 0.999998, pressure gradient = 0.00452973
smoothSolver:  Solving for omega, Initial residual = 1.48214e-05, Final residual = 7.82941e-06, No Iterations 1
smoothSolver:  Solving for k, Initial residual = 0.0019455, Final residual = 0.000172767, No Iterations 5
ExecutionTime = 0.102783 s  ClockTime = 0 s

Time = 44s

smoothSolver:  Solving for Ux, Initial residual = 0.00337991, Final residual = 0.00025471, No Iterations 6
smoothSolver:  Solving for Uy, Initial residual = 0.11927, Final residual = 0.00782538, No Iterations 3
Pressure gradient source: uncorrected Ubar = 0.999986, pressure gradient = 0.00481791
GAMG:  Solving for p, Initial residual = 0.0349665, Final residual = 0.00267673, No Iterations 5
time step continuity errors : sum local = 1.62507e-06, global = -3.98751e-18, cumulative = 4.41712e-17
Pressure gradient source: uncorrected Ubar = 0.999999, pressure gradient = 0.00455478
smoothSolver:  Solving for omega, Initial residual = 1.44391e-05, Final residual = 7.72527e-06, No Iterations 1
smoothSolver:  Solving for k, Initial residual = 0.00185116, Final residual = 0.00012791, No Iterations 5
ExecutionTime = 0.104876 s  ClockTime = 0 s

Time = 45s

smoothSolver:  Solving for Ux, Initial residual = 0.00331671, Final residual = 0.000248834, No Iterations 6
smoothSolver:  Solving for Uy, Initial residual = 0.0926895, Final residual = 0.00533425, No Iterations 3
Pressure gradient source: uncorrected Ubar = 0.999983, pressure gradient = 0.00491111
GAMG:  Solving for p, Initial residual = 0.0323676, Final residual = 0.00323093, No Iterations 5
time step continuity errors : sum local = 1.80165e-06, global = -3.05817e-18, cumulative = 4.1113e-17
Pressure gradient source: uncorrected Ubar = 0.999998, pressure gradient = 0.00458776
smoothSolver:  Solving for omega, Initial residual = 1.41082e-05, Final residual = 7.73054e-06, No Iterations 1
smoothSolver:  Solving for k, Initial residual = 0.00182933, Final residual = 0.000131045, No Iterations 5
ExecutionTime = 0.107513 s  ClockTime = 0 s

Time = 46s

smoothSolver:  Solving for Ux, Initial residual = 0.00325358, Final residual = 0.000243033, No Iterations 6
smoothSolver:  Solving for Uy, Initial residual = 0.0904728, Final residual = 0.0048583, No Iterations 3
Pressure gradient source: uncorrected Ubar = 0.999984, pressure gradient = 0.00490998
GAMG:  Solving for p, Initial residual = 0.031464, Final residual = 0.00263907, No Iterations 8
time step continuity errors : sum local = 1.33603e-06, global = -1.40822e-17, cumulative = 2.70308e-17
Pressure gradient source: uncorrected Ubar = 0.999999, pressure gradient = 0.00461504
smoothSolver:  Solving for omega, Initial residual = 1.37182e-05, Final residual = 7.29008e-06, No Iterations 1
smoothSolver:  Solving for k, Initial residual = 0.00181933, Final residual = 0.000155006, No Iterations 5
ExecutionTime = 0.10967 s  ClockTime = 0 s

Time = 47s

smoothSolver:  Solving for Ux, Initial residual = 0.00318943, Final residual = 0.000237062, No Iterations 6
smoothSolver:  Solving for Uy, Initial residual = 0.0777787, Final residual = 0.00394889, No Iterations 3
Pressure gradient source: uncorrected Ubar = 0.999989, pressure gradient = 0.00483716
GAMG:  Solving for p, Initial residual = 0.0345211, Final residual = 0.0031692, No Iterations 6
time step continuity errors : sum local = 1.44319e-06, global = 1.35546e-18, cumulative = 2.83863e-17
Pressure gradient source: uncorrected Ubar = 0.999999, pressure gradient = 0.00462762
smoothSolver:  Solving for omega, Initial residual = 1.3311e-05, Final residual = 7.03113e-06, No Iterations 1
smoothSolver:  Solving for k, Initial residual = 0.00180985, Final residual = 0.00011683, No Iterations 6
ExecutionTime = 0.111734 s  ClockTime = 0 s

Time = 48s

smoothSolver:  Solving for Ux, Initial residual = 0.00312808, Final residual = 0.00023139, No Iterations 6
smoothSolver:  Solving for Uy, Initial residual = 0.0707759, Final residual = 0.003815, No Iterations 3
Pressure gradient source: uncorrected Ubar = 0.999988, pressure gradient = 0.00487155
GAMG:  Solving for p, Initial residual = 0.0308862, Final residual = 0.00199482, No Iterations 8
time step continuity errors : sum local = 8.74881e-07, global = 1.29225e-19, cumulative = 2.85155e-17
Pressure gradient source: uncorrected Ubar = 0.999999, pressure gradient = 0.00464207
smoothSolver:  Solving for omega, Initial residual = 1.30197e-05, Final residual = 7.08635e-06, No Iterations 1
smoothSolver:  Solving for k, Initial residual = 0.00179199, Final residual = 0.000177244, No Iterations 5
ExecutionTime = 0.113809 s  ClockTime = 0 s

Time = 49s

smoothSolver:  Solving for Ux, Initial residual = 0.00307242, Final residual = 0.00022616, No Iterations 6
smoothSolver:  Solving for Uy, Initial residual = 0.0679664, Final residual = 0.00370817, No Iterations 3
Pressure gradient source: uncorrected Ubar = 0.999988, pressure gradient = 0.00490146
GAMG:  Solving for p, Initial residual = 0.0330604, Final residual = 0.00206627, No Iterations 8
time step continuity errors : sum local = 8.53132e-07, global = 6.16132e-18, cumulative = 3.46768e-17
Pressure gradient source: uncorrected Ubar = 0.999999, pressure gradient = 0.00465766
smoothSolver:  Solving for omega, Initial residual = 1.2682e-05, Final residual = 6.89827e-06, No Iterations 1
smoothSolver:  Solving for k, Initial residual = 0.00173778, Final residual = 0.000138371, No Iterations 5
ExecutionTime = 0.115873 s  ClockTime = 0 s

Time = 50s

smoothSolver:  Solving for Ux, Initial residual = 0.00302294, Final residual = 0.000221629, No Iterations 6
smoothSolver:  Solving for Uy, Initial residual = 0.0693341, Final residual = 0.00461694, No Iterations 3
Pressure gradient source: uncorrected Ubar = 0.999986, pressure gradient = 0.00496269
GAMG:  Solving for p, Initial residual = 0.0299269, Final residual = 0.00211801, No Iterations 8
time step continuity errors : sum local = 8.27151e-07, global = 3.73734e-18, cumulative = 3.84142e-17
Pressure gradient source: uncorrected Ubar = 0.999999, pressure gradient = 0.00467854
smoothSolver:  Solving for omega, Initial residual = 1.22922e-05, Final residual = 6.51849e-06, No Iterations 1
smoothSolver:  Solving for k, Initial residual = 0.00168487, Final residual = 0.000119167, No Iterations 5
ExecutionTime = 0.117935 s  ClockTime = 0 s

Time = 51s

smoothSolver:  Solving for Ux, Initial residual = 0.00297644, Final residual = 0.000217538, No Iterations 6
smoothSolver:  Solving for Uy, Initial residual = 0.0829419, Final residual = 0.00603524, No Iterations 3
Pressure gradient source: uncorrected Ubar = 0.999986, pressure gradient = 0.00497611
GAMG:  Solving for p, Initial residual = 0.0374713, Final residual = 0.00359595, No Iterations 7
time step continuity errors : sum local = 1.22496e-06, global = 3.62857e-18, cumulative = 4.20428e-17
Pressure gradient source: uncorrected Ubar = 0.999999, pressure gradient = 0.00469782
smoothSolver:  Solving for omega, Initial residual = 1.19868e-05, Final residual = 6.45548e-06, No Iterations 1
smoothSolver:  Solving for k, Initial residual = 0.00169345, Final residual = 0.000140152, No Iterations 5
ExecutionTime = 0.120083 s  ClockTime = 0 s

Time = 52s

smoothSolver:  Solving for Ux, Initial residual = 0.00292757, Final residual = 0.000213463, No Iterations 6
smoothSolver:  Solving for Uy, Initial residual = 0.0523375, Final residual = 0.00264927, No Iterations 3
Pressure gradient source: uncorrected Ubar = 0.999987, pressure gradient = 0.00497407
GAMG:  Solving for p, Initial residual = 0.0273269, Final residual = 0.00225072, No Iterations 8
time step continuity errors : sum local = 8.06412e-07, global = 5.45504e-18, cumulative = 4.74978e-17
Pressure gradient source: uncorrected Ubar = 0.999999, pressure gradient = 0.00471366
smoothSolver:  Solving for omega, Initial residual = 1.17464e-05, Final residual = 6.5135e-06, No Iterations 1
smoothSolver:  Solving for k, Initial residual = 0.00167636, Final residual = 0.00014194, No Iterations 5
ExecutionTime = 0.122277 s  ClockTime = 0 s

Time = 53s

smoothSolver:  Solving for Ux, Initial residual = 0.00288461, Final residual = 0.000209663, No Iterations 6
smoothSolver:  Solving for Uy, Initial residual = 0.0518209, Final residual = 0.00342664, No Iterations 3
Pressure gradient source: uncorrected Ubar = 0.999986, pressure gradient = 0.0050088
GAMG:  Solving for p, Initial residual = 0.0251437, Final residual = 0.00216628, No Iterations 8
time step continuity errors : sum local = 7.10182e-07, global = -3.30991e-18, cumulative = 4.41879e-17
Pressure gradient source: uncorrected Ubar = 0.999999, pressure gradient = 0.00473142
smoothSolver:  Solving for omega, Initial residual = 1.13674e-05, Final residual = 6.08241e-06, No Iterations 1
smoothSolver:  Solving for k, Initial residual = 0.00168344, Final residual = 0.000159892, No Iterations 5
ExecutionTime = 0.12499 s  ClockTime = 0 s

Time = 54s

smoothSolver:  Solving for Ux, Initial residual = 0.00284009, Final residual = 0.000205579, No Iterations 6
smoothSolver:  Solving for Uy, Initial residual = 0.0662739, Final residual = 0.00501596, No Iterations 3
Pressure gradient source: uncorrected Ubar = 0.999989, pressure gradient = 0.00496097
GAMG:  Solving for p, Initial residual = 0.033243, Final residual = 0.00266144, No Iterations 5
time step continuity errors : sum local = 7.96186e-07, global = -1.12371e-17, cumulative = 3.29508e-17
Pressure gradient source: uncorrected Ubar = 1, pressure gradient = 0.0047398
smoothSolver:  Solving for omega, Initial residual = 1.10956e-05, Final residual = 6.03094e-06, No Iterations 1
smoothSolver:  Solving for k, Initial residual = 0.00164764, Final residual = 0.000135308, No Iterations 5
ExecutionTime = 0.127112 s  ClockTime = 0 s

Time = 55s

smoothSolver:  Solving for Ux, Initial residual = 0.00279914, Final residual = 0.000201834, No Iterations 6
smoothSolver:  Solving for Uy, Initial residual = 0.0632582, Final residual = 0.00478609, No Iterations 3
Pressure gradient source: uncorrected Ubar = 0.999989, pressure gradient = 0.00498865
GAMG:  Solving for p, Initial residual = 0.0295583, Final residual = 0.00200221, No Iterations 8
time step continuity errors : sum local = 6.26199e-07, global = -1.19784e-17, cumulative = 2.09723e-17
Pressure gradient source: uncorrected Ubar = 1, pressure gradient = 0.00475039
smoothSolver:  Solving for omega, Initial residual = 1.08215e-05, Final residual = 5.90253e-06, No Iterations 1
smoothSolver:  Solving for k, Initial residual = 0.00162064, Final residual = 0.000131803, No Iterations 5
ExecutionTime = 0.129226 s  ClockTime = 0 s

Time = 56s

smoothSolver:  Solving for Ux, Initial residual = 0.00276102, Final residual = 0.00019854, No Iterations 6
smoothSolver:  Solving for Uy, Initial residual = 0.0545017, Final residual = 0.0035103, No Iterations 3
Pressure gradient source: uncorrected Ubar = 0.999987, pressure gradient = 0.00503823
GAMG:  Solving for p, Initial residual = 0.029306, Final residual = 0.0024655, No Iterations 8
time step continuity errors : sum local = 7.10707e-07, global = -3.04571e-18, cumulative = 1.79266e-17
Pressure gradient source: uncorrected Ubar = 0.999999, pressure gradient = 0.00476582
smoothSolver:  Solving for omega, Initial residual = 1.05254e-05, Final residual = 5.67331e-06, No Iterations 1
smoothSolver:  Solving for k, Initial residual = 0.00163586, Final residual = 0.000153455, No Iterations 5
ExecutionTime = 0.131317 s  ClockTime = 0 s

Time = 57s

smoothSolver:  Solving for Ux, Initial residual = 0.00272165, Final residual = 0.000195097, No Iterations 6
smoothSolver:  Solving for Uy, Initial residual = 0.0546198, Final residual = 0.00384821, No Iterations 3
Pressure gradient source: uncorrected Ubar = 0.999989, pressure gradient = 0.00500529
GAMG:  Solving for p, Initial residual = 0.0266298, Final residual = 0.00193023, No Iterations 8
time step continuity errors : sum local = 5.36693e-07, global = 5.35388e-19, cumulative = 1.8462e-17
Pressure gradient source: uncorrected Ubar = 1, pressure gradient = 0.00477439
smoothSolver:  Solving for omega, Initial residual = 1.03104e-05, Final residual = 5.74754e-06, No Iterations 1
smoothSolver:  Solving for k, Initial residual = 0.00163169, Final residual = 0.000159371, No Iterations 5
ExecutionTime = 0.133398 s  ClockTime = 0 s

Time = 58s

smoothSolver:  Solving for Ux, Initial residual = 0.00268323, Final residual = 0.000191658, No Iterations 6
smoothSolver:  Solving for Uy, Initial residual = 0.0643914, Final residual = 0.00594825, No Iterations 3
Pressure gradient source: uncorrected Ubar = 0.999989, pressure gradient = 0.00500995
GAMG:  Solving for p, Initial residual = 0.0290912, Final residual = 0.00266228, No Iterations 6
time step continuity errors : sum local = 7.29592e-07, global = 5.78197e-18, cumulative = 2.4244e-17
Pressure gradient source: uncorrected Ubar = 1, pressure gradient = 0.0047822
smoothSolver:  Solving for omega, Initial residual = 1.00386e-05, Final residual = 5.50682e-06, No Iterations 1
smoothSolver:  Solving for k, Initial residual = 0.00157944, Final residual = 0.000112287, No Iterations 5
ExecutionTime = 0.135413 s  ClockTime = 0 s

Time = 59s

smoothSolver:  Solving for Ux, Initial residual = 0.00264878, Final residual = 0.000188655, No Iterations 6
smoothSolver:  Solving for Uy, Initial residual = 0.065182, Final residual = 0.00603837, No Iterations 3
Pressure gradient source: uncorrected Ubar = 0.999988, pressure gradient = 0.0050504
GAMG:  Solving for p, Initial residual = 0.028739, Final residual = 0.00222541, No Iterations 8
time step continuity errors : sum local = 6.48171e-07, global = 7.11332e-18, cumulative = 3.13573e-17
Pressure gradient source: uncorrected Ubar = 0.999999, pressure gradient = 0.00479418
smoothSolver:  Solving for omega, Initial residual = 9.78557e-06, Final residual = 9.78557e-06, No Iterations 0
smoothSolver:  Solving for k, Initial residual = 0.00176886, Final residual = 0.000158865, No Iterations 5
ExecutionTime = 0.137586 s  ClockTime = 0 s

Time = 60s

smoothSolver:  Solving for Ux, Initial residual = 0.00261752, Final residual = 0.000185362, No Iterations 6
smoothSolver:  Solving for Uy, Initial residual = 0.069025, Final residual = 0.00534227, No Iterations 3
Pressure gradient source: uncorrected Ubar = 0.99999, pressure gradient = 0.00501702
GAMG:  Solving for p, Initial residual = 0.0310767, Final residual = 0.00265544, No Iterations 7
time step continuity errors : sum local = 6.94575e-07, global = 5.49466e-18, cumulative = 3.6852e-17
Pressure gradient source: uncorrected Ubar = 1, pressure gradient = 0.00480037
smoothSolver:  Solving for omega, Initial residual = 1.15783e-05, Final residual = 5.88452e-06, No Iterations 1
smoothSolver:  Solving for k, Initial residual = 0.00184583, Final residual = 0.000122555, No Iterations 6
ExecutionTime = 0.140223 s  ClockTime = 0 s

Time = 61s

smoothSolver:  Solving for Ux, Initial residual = 0.00257484, Final residual = 0.000181787, No Iterations 6
smoothSolver:  Solving for Uy, Initial residual = 0.0745555, Final residual = 0.00504435, No Iterations 3
Pressure gradient source: uncorrected Ubar = 0.999989, pressure gradient = 0.00505191
GAMG:  Solving for p, Initial residual = 0.0375203, Final residual = 0.00329035, No Iterations 5
time step continuity errors : sum local = 7.89353e-07, global = -4.87668e-18, cumulative = 3.19753e-17
Pressure gradient source: uncorrected Ubar = 1, pressure gradient = 0.00481026
smoothSolver:  Solving for omega, Initial residual = 9.93755e-06, Final residual = 9.93755e-06, No Iterations 0
smoothSolver:  Solving for k, Initial residual = 0.00194933, Final residual = 0.000188836, No Iterations 5
ExecutionTime = 0.142302 s  ClockTime = 0 s

Time = 62s

smoothSolver:  Solving for Ux, Initial residual = 0.00253882, Final residual = 0.000177609, No Iterations 6
smoothSolver:  Solving for Uy, Initial residual = 0.0827419, Final residual = 0.00482939, No Iterations 3
Pressure gradient source: uncorrected Ubar = 0.99999, pressure gradient = 0.00502816
GAMG:  Solving for p, Initial residual = 0.0412486, Final residual = 0.00298142, No Iterations 5
time step continuity errors : sum local = 7.14182e-07, global = -2.624e-18, cumulative = 2.93513e-17
Pressure gradient source: uncorrected Ubar = 1, pressure gradient = 0.00481597
smoothSolver:  Solving for omega, Initial residual = 1.14839e-05, Final residual = 6.19192e-06, No Iterations 1
smoothSolver:  Solving for k, Initial residual = 0.0019834, Final residual = 0.000152397, No Iterations 5
ExecutionTime = 0.144337 s  ClockTime = 0 s

Time = 63s

smoothSolver:  Solving for Ux, Initial residual = 0.0024925, Final residual = 0.000174323, No Iterations 6
smoothSolver:  Solving for Uy, Initial residual = 0.0897386, Final residual = 0.00858746, No Iterations 3
Pressure gradient source: uncorrected Ubar = 0.999988, pressure gradient = 0.00509056
GAMG:  Solving for p, Initial residual = 0.0425212, Final residual = 0.0039939, No Iterations 4
time step continuity errors : sum local = 9.43583e-07, global = 8.19037e-18, cumulative = 3.75417e-17
Pressure gradient source: uncorrected Ubar = 0.999999, pressure gradient = 0.00482923
smoothSolver:  Solving for omega, Initial residual = 1.00766e-05, Final residual = 5.55306e-06, No Iterations 1
smoothSolver:  Solving for k, Initial residual = 0.00194672, Final residual = 0.00015332, No Iterations 5
ExecutionTime = 0.146293 s  ClockTime = 0 s

Time = 64s

smoothSolver:  Solving for Ux, Initial residual = 0.00244275, Final residual = 0.000171049, No Iterations 6
smoothSolver:  Solving for Uy, Initial residual = 0.11164, Final residual = 0.0101721, No Iterations 3
Pressure gradient source: uncorrected Ubar = 0.999988, pressure gradient = 0.00508931
GAMG:  Solving for p, Initial residual = 0.0395182, Final residual = 0.00364427, No Iterations 3
time step continuity errors : sum local = 8.52604e-07, global = 1.14775e-17, cumulative = 4.90192e-17
Pressure gradient source: uncorrected Ubar = 1, pressure gradient = 0.0048404
smoothSolver:  Solving for omega, Initial residual = 9.75598e-06, Final residual = 9.75598e-06, No Iterations 0
smoothSolver:  Solving for k, Initial residual = 0.00213819, Final residual = 0.000149924, No Iterations 6
ExecutionTime = 0.148227 s  ClockTime = 0 s

Time = 65s

smoothSolver:  Solving for Ux, Initial residual = 0.00235974, Final residual = 0.000164791, No Iterations 6
smoothSolver:  Solving for Uy, Initial residual = 0.1461, Final residual = 0.0130025, No Iterations 3
Pressure gradient source: uncorrected Ubar = 0.999993, pressure gradient = 0.00498952
GAMG:  Solving for p, Initial residual = 0.0418417, Final residual = 0.00351893, No Iterations 3
time step continuity errors : sum local = 8.04477e-07, global = -6.5481e-18, cumulative = 4.24711e-17
Pressure gradient source: uncorrected Ubar = 1, pressure gradient = 0.00483694
smoothSolver:  Solving for omega, Initial residual = 1.12472e-05, Final residual = 5.73857e-06, No Iterations 1
smoothSolver:  Solving for k, Initial residual = 0.00227351, Final residual = 0.000153985, No Iterations 6
ExecutionTime = 0.15014 s  ClockTime = 0 s

Time = 66s

smoothSolver:  Solving for Ux, Initial residual = 0.00231106, Final residual = 0.00016104, No Iterations 6
smoothSolver:  Solving for Uy, Initial residual = 0.0945114, Final residual = 0.0087452, No Iterations 3
Pressure gradient source: uncorrected Ubar = 0.999989, pressure gradient = 0.00508042
GAMG:  Solving for p, Initial residual = 0.0283499, Final residual = 0.00176756, No Iterations 5
time step continuity errors : sum local = 4.82905e-07, global = -1.68242e-18, cumulative = 4.07886e-17
Pressure gradient source: uncorrected Ubar = 1, pressure gradient = 0.00484619
smoothSolver:  Solving for omega, Initial residual = 9.72324e-06, Final residual = 9.72324e-06, No Iterations 0
smoothSolver:  Solving for k, Initial residual = 0.00244171, Final residual = 0.000174279, No Iterations 6
ExecutionTime = 0.152125 s  ClockTime = 0 s

Time = 67s

smoothSolver:  Solving for Ux, Initial residual = 0.00223189, Final residual = 0.000154749, No Iterations 6
smoothSolver:  Solving for Uy, Initial residual = 0.0792813, Final residual = 0.00750271, No Iterations 3
Pressure gradient source: uncorrected Ubar = 0.999994, pressure gradient = 0.00498688
GAMG:  Solving for p, Initial residual = 0.0190837, Final residual = 0.00167689, No Iterations 7
time step continuity errors : sum local = 3.94759e-07, global = -2.06123e-18, cumulative = 3.87274e-17
Pressure gradient source: uncorrected Ubar = 1, pressure gradient = 0.00484201
smoothSolver:  Solving for omega, Initial residual = 1.09772e-05, Final residual = 6.10766e-06, No Iterations 1
smoothSolver:  Solving for k, Initial residual = 0.00255026, Final residual = 0.000166393, No Iterations 6
ExecutionTime = 0.154296 s  ClockTime = 0 s

Time = 68s

smoothSolver:  Solving for Ux, Initial residual = 0.00218795, Final residual = 0.000151366, No Iterations 6
smoothSolver:  Solving for Uy, Initial residual = 0.0653109, Final residual = 0.00501425, No Iterations 3
Pressure gradient source: uncorrected Ubar = 0.999989, pressure gradient = 0.0050829
GAMG:  Solving for p, Initial residual = 0.0253675, Final residual = 0.00240201, No Iterations 8
time step continuity errors : sum local = 5.85633e-07, global = -1.28462e-18, cumulative = 3.74428e-17
Pressure gradient source: uncorrected Ubar = 1, pressure gradient = 0.00485141
smoothSolver:  Solving for omega, Initial residual = 9.72545e-06, Final residual = 9.72545e-06, No Iterations 0
smoothSolver:  Solving for k, Initial residual = 0.0026811, Final residual = 0.000231426, No Iterations 5
ExecutionTime = 0.156972 s  ClockTime = 0 s

Time = 69s

smoothSolver:  Solving for Ux, Initial residual = 0.00211617, Final residual = 0.000145761, No Iterations 6
smoothSolver:  Solving for Uy, Initial residual = 0.0564329, Final residual = 0.00419686, No Iterations 3
Pressure gradient source: uncorrected Ubar = 0.999992, pressure gradient = 0.00501961
GAMG:  Solving for p, Initial residual = 0.0284155, Final residual = 0.00279897, No Iterations 7
time step continuity errors : sum local = 6.46196e-07, global = -2.21356e-18, cumulative = 3.52292e-17
Pressure gradient source: uncorrected Ubar = 1, pressure gradient = 0.0048515
smoothSolver:  Solving for omega, Initial residual = 1.0993e-05, Final residual = 5.83631e-06, No Iterations 1
smoothSolver:  Solving for k, Initial residual = 0.00281106, Final residual = 0.000266395, No Iterations 5
ExecutionTime = 0.159195 s  ClockTime = 0 s

Time = 70s

smoothSolver:  Solving for Ux, Initial residual = 0.00207436, Final residual = 0.000142676, No Iterations 6
smoothSolver:  Solving for Uy, Initial residual = 0.111303, Final residual = 0.0110239, No Iterations 3
Pressure gradient source: uncorrected Ubar = 0.999989, pressure gradient = 0.00510437
GAMG:  Solving for p, Initial residual = 0.0319172, Final residual = 0.00280144, No Iterations 4
time step continuity errors : sum local = 6.31552e-07, global = 1.22415e-17, cumulative = 4.74708e-17
Pressure gradient source: uncorrected Ubar = 0.999999, pressure gradient = 0.00486308
smoothSolver:  Solving for omega, Initial residual = 9.57257e-06, Final residual = 9.57257e-06, No Iterations 0
smoothSolver:  Solving for k, Initial residual = 0.00294377, Final residual = 0.000216324, No Iterations 6
ExecutionTime = 0.161223 s  ClockTime = 0 s

Time = 71s

smoothSolver:  Solving for Ux, Initial residual = 0.00199792, Final residual = 0.000136786, No Iterations 6
smoothSolver:  Solving for Uy, Initial residual = 0.0829109, Final residual = 0.00819717, No Iterations 3
Pressure gradient source: uncorrected Ubar = 0.999994, pressure gradient = 0.00499616
GAMG:  Solving for p, Initial residual = 0.0217247, Final residual = 0.00171416, No Iterations 7
time step continuity errors : sum local = 3.96477e-07, global = -1.72651e-18, cumulative = 4.57442e-17
Pressure gradient source: uncorrected Ubar = 1, pressure gradient = 0.00485907
smoothSolver:  Solving for omega, Initial residual = 1.07151e-05, Final residual = 5.60523e-06, No Iterations 1
smoothSolver:  Solving for k, Initial residual = 0.00305426, Final residual = 0.000215497, No Iterations 6
ExecutionTime = 0.163314 s  ClockTime = 0 s

Time = 72s

smoothSolver:  Solving for Ux, Initial residual = 0.00195467, Final residual = 0.000133684, No Iterations 6
smoothSolver:  Solving for Uy, Initial residual = 0.0618476, Final residual = 0.00512175, No Iterations 3
Pressure gradient source: uncorrected Ubar = 0.999989, pressure gradient = 0.00510118
GAMG:  Solving for p, Initial residual = 0.0192992, Final residual = 0.00188848, No Iterations 8
time step continuity errors : sum local = 4.51366e-07, global = 7.92902e-19, cumulative = 4.65372e-17
Pressure gradient source: uncorrected Ubar = 1, pressure gradient = 0.00486996
smoothSolver:  Solving for omega, Initial residual = 9.56985e-06, Final residual = 9.56985e-06, No Iterations 0
smoothSolver:  Solving for k, Initial residual = 0.00310648, Final residual = 0.000289443, No Iterations 5
ExecutionTime = 0.165373 s  ClockTime = 0 s

Time = 73s

smoothSolver:  Solving for Ux, Initial residual = 0.00188631, Final residual = 0.000128391, No Iterations 6
smoothSolver:  Solving for Uy, Initial residual = 0.103551, Final residual = 0.00939313, No Iterations 3
Pressure gradient source: uncorrected Ubar = 0.999993, pressure gradient = 0.00501928
GAMG:  Solving for p, Initial residual = 0.0357697, Final residual = 0.00290134, No Iterations 9
time step continuity errors : sum local = 6.34788e-07, global = -2.82705e-18, cumulative = 4.37101e-17
Pressure gradient source: uncorrected Ubar = 1, pressure gradient = 0.00486888
smoothSolver:  Solving for omega, Initial residual = 1.06475e-05, Final residual = 6.07046e-06, No Iterations 1
smoothSolver:  Solving for k, Initial residual = 0.0031788, Final residual = 0.000251346, No Iterations 5
ExecutionTime = 0.167509 s  ClockTime = 0 s

Time = 74s

smoothSolver:  Solving for Ux, Initial residual = 0.00185014, Final residual = 0.000126165, No Iterations 6
smoothSolver:  Solving for Uy, Initial residual = 0.108027, Final residual = 0.0059068, No Iterations 4
Pressure gradient source: uncorrected Ubar = 0.999988, pressure gradient = 0.00513145
GAMG:  Solving for p, Initial residual = 0.0370942, Final residual = 0.00287304, No Iterations 9
time step continuity errors : sum local = 6.06238e-07, global = 3.13488e-18, cumulative = 4.6845e-17
Pressure gradient source: uncorrected Ubar = 0.999999, pressure gradient = 0.00488329
smoothSolver:  Solving for omega, Initial residual = 9.35268e-06, Final residual = 9.35268e-06, No Iterations 0
smoothSolver:  Solving for k, Initial residual = 0.00328563, Final residual = 0.000215432, No Iterations 6
ExecutionTime = 0.169643 s  ClockTime = 0 s

Time = 75s

smoothSolver:  Solving for Ux, Initial residual = 0.00178132, Final residual = 0.000120989, No Iterations 6
smoothSolver:  Solving for Uy, Initial residual = 0.0827489, Final residual = 0.00804344, No Iterations 3
Pressure gradient source: uncorrected Ubar = 0.999993, pressure gradient = 0.00503974
GAMG:  Solving for p, Initial residual = 0.033577, Final residual = 0.00317482, No Iterations 5
time step continuity errors : sum local = 6.02537e-07, global = 1.11679e-17, cumulative = 5.80129e-17
Pressure gradient source: uncorrected Ubar = 1, pressure gradient = 0.00488411
smoothSolver:  Solving for omega, Initial residual = 1.03404e-05, Final residual = 5.73115e-06, No Iterations 1
smoothSolver:  Solving for k, Initial residual = 0.00336987, Final residual = 0.000261779, No Iterations 6
ExecutionTime = 0.171709 s  ClockTime = 0 s

Time = 76s

smoothSolver:  Solving for Ux, Initial residual = 0.00174151, Final residual = 0.000118284, No Iterations 6
smoothSolver:  Solving for Uy, Initial residual = 0.116992, Final residual = 0.0105021, No Iterations 3
Pressure gradient source: uncorrected Ubar = 0.99999, pressure gradient = 0.00511372
GAMG:  Solving for p, Initial residual = 0.0350563, Final residual = 0.00249074, No Iterations 3
time step continuity errors : sum local = 4.32639e-07, global = -1.12162e-18, cumulative = 5.68913e-17
Pressure gradient source: uncorrected Ubar = 1, pressure gradient = 0.00489507
smoothSolver:  Solving for omega, Initial residual = 9.16564e-06, Final residual = 9.16564e-06, No Iterations 0
smoothSolver:  Solving for k, Initial residual = 0.00340269, Final residual = 0.000247722, No Iterations 6
ExecutionTime = 0.174256 s  ClockTime = 0 s

Time = 77s

smoothSolver:  Solving for Ux, Initial residual = 0.00166919, Final residual = 0.000112896, No Iterations 6
smoothSolver:  Solving for Uy, Initial residual = 0.0824151, Final residual = 0.00597024, No Iterations 3
Pressure gradient source: uncorrected Ubar = 0.999994, pressure gradient = 0.00502166
GAMG:  Solving for p, Initial residual = 0.0309886, Final residual = 0.00206964, No Iterations 3
time step continuity errors : sum local = 3.62626e-07, global = -6.80705e-18, cumulative = 5.00842e-17
Pressure gradient source: uncorrected Ubar = 1, pressure gradient = 0.0048928
smoothSolver:  Solving for omega, Initial residual = 1.00544e-05, Final residual = 5.33275e-06, No Iterations 1
smoothSolver:  Solving for k, Initial residual = 0.00343857, Final residual = 0.000327765, No Iterations 5
ExecutionTime = 0.176272 s  ClockTime = 0 s

Time = 78s

smoothSolver:  Solving for Ux, Initial residual = 0.00163632, Final residual = 0.000110746, No Iterations 6
smoothSolver:  Solving for Uy, Initial residual = 0.121744, Final residual = 0.00573655, No Iterations 4
Pressure gradient source: uncorrected Ubar = 0.999989, pressure gradient = 0.00514001
GAMG:  Solving for p, Initial residual = 0.0565067, Final residual = 0.00553402, No Iterations 5
time step continuity errors : sum local = 1.03799e-06, global = 2.19413e-18, cumulative = 5.22784e-17
Pressure gradient source: uncorrected Ubar = 0.999999, pressure gradient = 0.00490705
smoothSolver:  Solving for omega, Initial residual = 9.05394e-06, Final residual = 9.05394e-06, No Iterations 0
smoothSolver:  Solving for k, Initial residual = 0.00339374, Final residual = 0.000224289, No Iterations 5
ExecutionTime = 0.178296 s  ClockTime = 0 s

Time = 79s

smoothSolver:  Solving for Ux, Initial residual = 0.00157503, Final residual = 0.000106302, No Iterations 6
smoothSolver:  Solving for Uy, Initial residual = 0.0898325, Final residual = 0.00712912, No Iterations 3
Pressure gradient source: uncorrected Ubar = 0.999994, pressure gradient = 0.005049
GAMG:  Solving for p, Initial residual = 0.0429244, Final residual = 0.00335192, No Iterations 7
time step continuity errors : sum local = 6.80641e-07, global = 7.29368e-19, cumulative = 5.30077e-17
Pressure gradient source: uncorrected Ubar = 1, pressure gradient = 0.00490779
smoothSolver:  Solving for omega, Initial residual = 9.8871e-06, Final residual = 9.8871e-06, No Iterations 0
smoothSolver:  Solving for k, Initial residual = 0.00373156, Final residual = 0.00027069, No Iterations 6
ExecutionTime = 0.180372 s  ClockTime = 0 s

Time = 80s

smoothSolver:  Solving for Ux, Initial residual = 0.0015052, Final residual = 0.000101281, No Iterations 6
smoothSolver:  Solving for Uy, Initial residual = 0.115522, Final residual = 0.00856382, No Iterations 3
Pressure gradient source: uncorrected Ubar = 0.999993, pressure gradient = 0.00505442
GAMG:  Solving for p, Initial residual = 0.038127, Final residual = 0.00354414, No Iterations 6
time step continuity errors : sum local = 6.03896e-07, global = -2.43484e-18, cumulative = 5.05729e-17
Pressure gradient source: uncorrected Ubar = 1, pressure gradient = 0.00490993
smoothSolver:  Solving for omega, Initial residual = 1.06608e-05, Final residual = 6.02232e-06, No Iterations 1
smoothSolver:  Solving for k, Initial residual = 0.00375062, Final residual = 0.000264782, No Iterations 6
ExecutionTime = 0.182373 s  ClockTime = 0 s

Time = 81s

smoothSolver:  Solving for Ux, Initial residual = 0.00147195, Final residual = 9.94239e-05, No Iterations 6
smoothSolver:  Solving for Uy, Initial residual = 0.0808033, Final residual = 0.00587869, No Iterations 3
Pressure gradient source: uncorrected Ubar = 0.999989, pressure gradient = 0.00515414
GAMG:  Solving for p, Initial residual = 0.0241082, Final residual = 0.00179225, No Iterations 7
time step continuity errors : sum local = 3.26455e-07, global = -8.66852e-19, cumulative = 4.9706e-17
Pressure gradient source: uncorrected Ubar = 0.999999, pressure gradient = 0.00492551
smoothSolver:  Solving for omega, Initial residual = 9.16015e-06, Final residual = 9.16015e-06, No Iterations 0
smoothSolver:  Solving for k, Initial residual = 0.00375477, Final residual = 0.00028927, No Iterations 6
ExecutionTime = 0.184403 s  ClockTime = 0 s

Time = 82s

smoothSolver:  Solving for Ux, Initial residual = 0.00140993, Final residual = 9.49251e-05, No Iterations 6
smoothSolver:  Solving for Uy, Initial residual = 0.0788888, Final residual = 0.00635738, No Iterations 3
Pressure gradient source: uncorrected Ubar = 0.999994, pressure gradient = 0.00506206
GAMG:  Solving for p, Initial residual = 0.0347461, Final residual = 0.00344403, No Iterations 5
time step continuity errors : sum local = 5.69672e-07, global = 9.52118e-20, cumulative = 4.98013e-17
Pressure gradient source: uncorrected Ubar = 1, pressure gradient = 0.00492732
smoothSolver:  Solving for omega, Initial residual = 9.71822e-06, Final residual = 9.71822e-06, No Iterations 0
smoothSolver:  Solving for k, Initial residual = 0.00385264, Final residual = 0.000359055, No Iterations 5
ExecutionTime = 0.18648 s  ClockTime = 0 s

Time = 83s

smoothSolver:  Solving for Ux, Initial residual = 0.00134854, Final residual = 9.03553e-05, No Iterations 6
smoothSolver:  Solving for Uy, Initial residual = 0.17976, Final residual = 0.0162826, No Iterations 3
Pressure gradient source: uncorrected Ubar = 0.999994, pressure gradient = 0.00504568
GAMG:  Solving for p, Initial residual = 0.0479836, Final residual = 0.00374793, No Iterations 7
time step continuity errors : sum local = 6.15264e-07, global = -3.50183e-18, cumulative = 4.62994e-17
Pressure gradient source: uncorrected Ubar = 1, pressure gradient = 0.00492735
smoothSolver:  Solving for omega, Initial residual = 1.03902e-05, Final residual = 5.79087e-06, No Iterations 1
smoothSolver:  Solving for k, Initial residual = 0.00376508, Final residual = 0.000246947, No Iterations 5
ExecutionTime = 0.188587 s  ClockTime = 0 s

Time = 84s

smoothSolver:  Solving for Ux, Initial residual = 0.00132174, Final residual = 8.89956e-05, No Iterations 6
smoothSolver:  Solving for Uy, Initial residual = 0.188482, Final residual = 0.0160722, No Iterations 3
Pressure gradient source: uncorrected Ubar = 0.999989, pressure gradient = 0.00515512
GAMG:  Solving for p, Initial residual = 0.066594, Final residual = 0.00596731, No Iterations 5
time step continuity errors : sum local = 9.43166e-07, global = 1.00178e-17, cumulative = 5.63172e-17
Pressure gradient source: uncorrected Ubar = 0.999999, pressure gradient = 0.00494236
smoothSolver:  Solving for omega, Initial residual = 9.00867e-06, Final residual = 9.00867e-06, No Iterations 0
smoothSolver:  Solving for k, Initial residual = 0.00383516, Final residual = 0.000263343, No Iterations 6
ExecutionTime = 0.191198 s  ClockTime = 0 s

Time = 85s

smoothSolver:  Solving for Ux, Initial residual = 0.00125394, Final residual = 8.43308e-05, No Iterations 6
smoothSolver:  Solving for Uy, Initial residual = 0.164453, Final residual = 0.00976534, No Iterations 3
Pressure gradient source: uncorrected Ubar = 0.999995, pressure gradient = 0.0050407
GAMG:  Solving for p, Initial residual = 0.0474609, Final residual = 0.00416256, No Iterations 5
time step continuity errors : sum local = 6.73034e-07, global = 7.0902e-19, cumulative = 5.70262e-17
Pressure gradient source: uncorrected Ubar = 1, pressure gradient = 0.0049407
smoothSolver:  Solving for omega, Initial residual = 9.58342e-06, Final residual = 9.58342e-06, No Iterations 0
smoothSolver:  Solving for k, Initial residual = 0.00397563, Final residual = 0.000277141, No Iterations 6
ExecutionTime = 0.193246 s  ClockTime = 0 s

Time = 86s

smoothSolver:  Solving for Ux, Initial residual = 0.00118699, Final residual = 7.95144e-05, No Iterations 6
smoothSolver:  Solving for Uy, Initial residual = 0.193911, Final residual = 0.0185453, No Iterations 3
Pressure gradient source: uncorrected Ubar = 0.999995, pressure gradient = 0.00504256
GAMG:  Solving for p, Initial residual = 0.0477925, Final residual = 0.00425902, No Iterations 3
time step continuity errors : sum local = 6.416e-07, global = -1.9547e-18, cumulative = 5.50715e-17
Pressure gradient source: uncorrected Ubar = 1, pressure gradient = 0.00494024
smoothSolver:  Solving for omega, Initial residual = 1.01374e-05, Final residual = 5.30693e-06, No Iterations 1
smoothSolver:  Solving for k, Initial residual = 0.00396821, Final residual = 0.000255146, No Iterations 6
ExecutionTime = 0.195227 s  ClockTime = 0 s

Time = 87s

smoothSolver:  Solving for Ux, Initial residual = 0.00115985, Final residual = 7.81635e-05, No Iterations 6
smoothSolver:  Solving for Uy, Initial residual = 0.219066, Final residual = 0.0191937, No Iterations 3
Pressure gradient source: uncorrected Ubar = 0.999989, pressure gradient = 0.00517393
GAMG:  Solving for p, Initial residual = 0.0816178, Final residual = 0.00612416, No Iterations 4
time step continuity errors : sum local = 9.54065e-07, global = 8.68667e-18, cumulative = 6.37582e-17
Pressure gradient source: uncorrected Ubar = 0.999999, pressure gradient = 0.00495785
smoothSolver:  Solving for omega, Initial residual = 8.97953e-06, Final residual = 8.97953e-06, No Iterations 0
smoothSolver:  Solving for k, Initial residual = 0.00381935, Final residual = 0.000261245, No Iterations 5
ExecutionTime = 0.197159 s  ClockTime = 0 s

Time = 88s

smoothSolver:  Solving for Ux, Initial residual = 0.00110876, Final residual = 7.47481e-05, No Iterations 6
smoothSolver:  Solving for Uy, Initial residual = 0.160337, Final residual = 0.00820574, No Iterations 3
Pressure gradient source: uncorrected Ubar = 0.999994, pressure gradient = 0.00507677
GAMG:  Solving for p, Initial residual = 0.064178, Final residual = 0.00599384, No Iterations 7
time step continuity errors : sum local = 1.00306e-06, global = -4.94242e-18, cumulative = 5.88157e-17
Pressure gradient source: uncorrected Ubar = 1, pressure gradient = 0.0049606
smoothSolver:  Solving for omega, Initial residual = 9.42912e-06, Final residual = 9.42912e-06, No Iterations 0
smoothSolver:  Solving for k, Initial residual = 0.00398538, Final residual = 0.000390005, No Iterations 5
ExecutionTime = 0.199211 s  ClockTime = 0 s

Time = 89s

smoothSolver:  Solving for Ux, Initial residual = 0.00104704, Final residual = 7.02553e-05, No Iterations 6
smoothSolver:  Solving for Uy, Initial residual = 0.2023, Final residual = 0.0132114, No Iterations 3
Pressure gradient source: uncorrected Ubar = 0.999997, pressure gradient = 0.0050194
GAMG:  Solving for p, Initial residual = 0.0471022, Final residual = 0.00410358, No Iterations 6
[...]
Pressure gradient source: uncorrected Ubar = 1, pressure gradient = 0.00469879
smoothSolver:  Solving for omega, Initial residual = 7.23732e-06, Final residual = 7.23732e-06, No Iterations 0
smoothSolver:  Solving for k, Initial residual = 9.2195e-05, Final residual = 7.40774e-06, No Iterations 5
ExecutionTime = 0.566173 s  ClockTime = 1 s

Time = 266s

smoothSolver:  Solving for Ux, Initial residual = 2.43869e-05, Final residual = 9.58431e-06, No Iterations 2
smoothSolver:  Solving for Uy, Initial residual = 0.0185811, Final residual = 0.00117922, No Iterations 3
Pressure gradient source: uncorrected Ubar = 1, pressure gradient = 0.00470078
GAMG:  Solving for p, Initial residual = 0.00535366, Final residual = 0.000452356, No Iterations 5
time step continuity errors : sum local = 3.51663e-08, global = 1.4695e-17, cumulative = 3.47785e-17
Pressure gradient source: uncorrected Ubar = 1, pressure gradient = 0.00469903
smoothSolver:  Solving for omega, Initial residual = 7.23571e-06, Final residual = 7.23571e-06, No Iterations 0
smoothSolver:  Solving for k, Initial residual = 9.44546e-05, Final residual = 8.68127e-06, No Iterations 5
ExecutionTime = 0.568755 s  ClockTime = 1 s

Time = 267s

smoothSolver:  Solving for Ux, Initial residual = 2.27045e-05, Final residual = 8.96327e-06, No Iterations 2
smoothSolver:  Solving for Uy, Initial residual = 0.0183953, Final residual = 0.00111432, No Iterations 3
Pressure gradient source: uncorrected Ubar = 1, pressure gradient = 0.00469919
GAMG:  Solving for p, Initial residual = 0.004899, Final residual = 0.000469391, No Iterations 6
time step continuity errors : sum local = 3.6219e-08, global = 3.242e-18, cumulative = 3.80205e-17
Pressure gradient source: uncorrected Ubar = 1, pressure gradient = 0.00469889
smoothSolver:  Solving for omega, Initial residual = 7.23421e-06, Final residual = 7.23421e-06, No Iterations 0
smoothSolver:  Solving for k, Initial residual = 9.39795e-05, Final residual = 6.97815e-06, No Iterations 5
ExecutionTime = 0.57152 s  ClockTime = 1 s

Time = 268s

smoothSolver:  Solving for Ux, Initial residual = 2.1252e-05, Final residual = 8.401e-06, No Iterations 2
smoothSolver:  Solving for Uy, Initial residual = 0.0183822, Final residual = 0.00147299, No Iterations 3
Pressure gradient source: uncorrected Ubar = 1, pressure gradient = 0.00469885
GAMG:  Solving for p, Initial residual = 0.00413096, Final residual = 0.000326148, No Iterations 8
time step continuity errors : sum local = 2.64372e-08, global = 9.41559e-20, cumulative = 3.81146e-17
Pressure gradient source: uncorrected Ubar = 1, pressure gradient = 0.00469872
smoothSolver:  Solving for omega, Initial residual = 7.23318e-06, Final residual = 7.23318e-06, No Iterations 0
smoothSolver:  Solving for k, Initial residual = 9.65787e-05, Final residual = 8.9925e-06, No Iterations 5
ExecutionTime = 0.573734 s  ClockTime = 1 s

Time = 269s

smoothSolver:  Solving for Ux, Initial residual = 1.98178e-05, Final residual = 7.81527e-06, No Iterations 2
smoothSolver:  Solving for Uy, Initial residual = 0.0126629, Final residual = 0.00123299, No Iterations 2
Pressure gradient source: uncorrected Ubar = 1, pressure gradient = 0.00469812
GAMG:  Solving for p, Initial residual = 0.00412937, Final residual = 0.000267729, No Iterations 7
time step continuity errors : sum local = 1.99675e-08, global = 4.0329e-19, cumulative = 3.85179e-17
Pressure gradient source: uncorrected Ubar = 1, pressure gradient = 0.00469844
smoothSolver:  Solving for omega, Initial residual = 7.23202e-06, Final residual = 7.23202e-06, No Iterations 0
smoothSolver:  Solving for k, Initial residual = 9.59865e-05, Final residual = 7.10545e-06, No Iterations 5
ExecutionTime = 0.575915 s  ClockTime = 1 s

Time = 270s

smoothSolver:  Solving for Ux, Initial residual = 1.83921e-05, Final residual = 7.26267e-06, No Iterations 2
smoothSolver:  Solving for Uy, Initial residual = 0.0141941, Final residual = 0.000766642, No Iterations 3
Pressure gradient source: uncorrected Ubar = 1, pressure gradient = 0.00469804
GAMG:  Solving for p, Initial residual = 0.00363297, Final residual = 0.000345128, No Iterations 7
time step continuity errors : sum local = 2.85354e-08, global = -1.50381e-19, cumulative = 3.83675e-17
Pressure gradient source: uncorrected Ubar = 1, pressure gradient = 0.0046982
smoothSolver:  Solving for omega, Initial residual = 7.2322e-06, Final residual = 7.2322e-06, No Iterations 0
smoothSolver:  Solving for k, Initial residual = 9.8408e-05, Final residual = 8.83197e-06, No Iterations 5
ExecutionTime = 0.57805 s  ClockTime = 1 s

Time = 271s

smoothSolver:  Solving for Ux, Initial residual = 1.67842e-05, Final residual = 6.62678e-06, No Iterations 2
smoothSolver:  Solving for Uy, Initial residual = 0.0157124, Final residual = 0.00111194, No Iterations 3
Pressure gradient source: uncorrected Ubar = 1, pressure gradient = 0.0046975
GAMG:  Solving for p, Initial residual = 0.00420305, Final residual = 0.000373876, No Iterations 6
time step continuity errors : sum local = 2.97815e-08, global = 4.34901e-18, cumulative = 4.27165e-17
Pressure gradient source: uncorrected Ubar = 1, pressure gradient = 0.0046979
smoothSolver:  Solving for omega, Initial residual = 7.23203e-06, Final residual = 7.23203e-06, No Iterations 0
smoothSolver:  Solving for k, Initial residual = 9.77227e-05, Final residual = 7.289e-06, No Iterations 5
ExecutionTime = 0.580108 s  ClockTime = 1 s

Time = 272s

smoothSolver:  Solving for Ux, Initial residual = 1.54049e-05, Final residual = 9.35497e-06, No Iterations 1
smoothSolver:  Solving for Uy, Initial residual = 0.0128379, Final residual = 0.000844352, No Iterations 3
Pressure gradient source: uncorrected Ubar = 1, pressure gradient = 0.00469878
GAMG:  Solving for p, Initial residual = 0.00363486, Final residual = 0.00034228, No Iterations 8
time step continuity errors : sum local = 2.69825e-08, global = 3.389e-18, cumulative = 4.61055e-17
Pressure gradient source: uncorrected Ubar = 1, pressure gradient = 0.0046983
smoothSolver:  Solving for omega, Initial residual = 7.23235e-06, Final residual = 7.23235e-06, No Iterations 0
smoothSolver:  Solving for k, Initial residual = 9.97709e-05, Final residual = 8.97995e-06, No Iterations 5
ExecutionTime = 0.582138 s  ClockTime = 1 s

Time = 273s

smoothSolver:  Solving for Ux, Initial residual = 1.41138e-05, Final residual = 8.60644e-06, No Iterations 1
smoothSolver:  Solving for Uy, Initial residual = 0.0164046, Final residual = 0.00123243, No Iterations 3
Pressure gradient source: uncorrected Ubar = 1, pressure gradient = 0.00469725
GAMG:  Solving for p, Initial residual = 0.00419949, Final residual = 0.000363825, No Iterations 6
time step continuity errors : sum local = 2.84294e-08, global = 5.9093e-20, cumulative = 4.61646e-17
Pressure gradient source: uncorrected Ubar = 1, pressure gradient = 0.00469803
smoothSolver:  Solving for omega, Initial residual = 7.23308e-06, Final residual = 7.23308e-06, No Iterations 0
smoothSolver:  Solving for k, Initial residual = 9.87105e-05, Final residual = 7.37579e-06, No Iterations 5
ExecutionTime = 0.584132 s  ClockTime = 1 s

Time = 274s

smoothSolver:  Solving for Ux, Initial residual = 1.28575e-05, Final residual = 7.88353e-06, No Iterations 1
smoothSolver:  Solving for Uy, Initial residual = 0.0198631, Final residual = 0.00109479, No Iterations 3
Pressure gradient source: uncorrected Ubar = 1, pressure gradient = 0.00469706
GAMG:  Solving for p, Initial residual = 0.00395762, Final residual = 0.000268075, No Iterations 8
time step continuity errors : sum local = 2.21059e-08, global = -4.41728e-19, cumulative = 4.57229e-17
Pressure gradient source: uncorrected Ubar = 1, pressure gradient = 0.00469778
smoothSolver:  Solving for omega, Initial residual = 7.23412e-06, Final residual = 7.23412e-06, No Iterations 0
smoothSolver:  Solving for k, Initial residual = 9.91267e-05, Final residual = 8.89584e-06, No Iterations 5
ExecutionTime = 0.586177 s  ClockTime = 1 s

Time = 275s

smoothSolver:  Solving for Ux, Initial residual = 1.14538e-05, Final residual = 7.0056e-06, No Iterations 1
smoothSolver:  Solving for Uy, Initial residual = 0.015091, Final residual = 0.000800715, No Iterations 3
Pressure gradient source: uncorrected Ubar = 1, pressure gradient = 0.00469646
GAMG:  Solving for p, Initial residual = 0.00388827, Final residual = 0.000330805, No Iterations 6
time step continuity errors : sum local = 2.60357e-08, global = 3.55345e-18, cumulative = 4.92764e-17
Pressure gradient source: uncorrected Ubar = 1, pressure gradient = 0.00469739
smoothSolver:  Solving for omega, Initial residual = 7.23525e-06, Final residual = 7.23525e-06, No Iterations 0
smoothSolver:  Solving for k, Initial residual = 9.8551e-05, Final residual = 7.6225e-06, No Iterations 5
ExecutionTime = 0.588264 s  ClockTime = 1 s

Time = 276s

smoothSolver:  Solving for Ux, Initial residual = 1.01876e-05, Final residual = 6.21028e-06, No Iterations 1
smoothSolver:  Solving for Uy, Initial residual = 0.01073, Final residual = 0.000688203, No Iterations 3
Pressure gradient source: uncorrected Ubar = 1, pressure gradient = 0.00469619
GAMG:  Solving for p, Initial residual = 0.00351067, Final residual = 0.00032864, No Iterations 8
time step continuity errors : sum local = 2.50894e-08, global = -9.44022e-18, cumulative = 3.98361e-17
Pressure gradient source: uncorrected Ubar = 1, pressure gradient = 0.00469703
smoothSolver:  Solving for omega, Initial residual = 7.2365e-06, Final residual = 7.2365e-06, No Iterations 0
smoothSolver:  Solving for k, Initial residual = 9.98073e-05, Final residual = 8.86826e-06, No Iterations 5
ExecutionTime = 0.590515 s  ClockTime = 1 s

Time = 277s

smoothSolver:  Solving for Ux, Initial residual = 8.91786e-06, Final residual = 8.91786e-06, No Iterations 0
smoothSolver:  Solving for Uy, Initial residual = 0.0137306, Final residual = 0.000881453, No Iterations 3
Pressure gradient source: uncorrected Ubar = 1, pressure gradient = 0.00469703
GAMG:  Solving for p, Initial residual = 0.00346708, Final residual = 0.000262522, No Iterations 6
time step continuity errors : sum local = 2.23551e-08, global = -1.68014e-18, cumulative = 3.8156e-17
Pressure gradient source: uncorrected Ubar = 1, pressure gradient = 0.0046978
smoothSolver:  Solving for omega, Initial residual = 7.23762e-06, Final residual = 7.23762e-06, No Iterations 0
smoothSolver:  Solving for k, Initial residual = 9.85979e-05, Final residual = 7.5334e-06, No Iterations 5
ExecutionTime = 0.59263 s  ClockTime = 1 s

Time = 278s

smoothSolver:  Solving for Ux, Initial residual = 8.21505e-06, Final residual = 8.21505e-06, No Iterations 0
smoothSolver:  Solving for Uy, Initial residual = 0.0196754, Final residual = 0.00113335, No Iterations 3
Pressure gradient source: uncorrected Ubar = 1, pressure gradient = 0.0046978
GAMG:  Solving for p, Initial residual = 0.0034262, Final residual = 0.000257373, No Iterations 6
time step continuity errors : sum local = 2.10185e-08, global = 6.67485e-18, cumulative = 4.48308e-17
Pressure gradient source: uncorrected Ubar = 1, pressure gradient = 0.00469742
smoothSolver:  Solving for omega, Initial residual = 7.23825e-06, Final residual = 7.23825e-06, No Iterations 0
smoothSolver:  Solving for k, Initial residual = 9.88051e-05, Final residual = 7.56663e-06, No Iterations 5
ExecutionTime = 0.594664 s  ClockTime = 1 s

Time = 279s

smoothSolver:  Solving for Ux, Initial residual = 7.52007e-06, Final residual = 7.52007e-06, No Iterations 0
smoothSolver:  Solving for Uy, Initial residual = 0.0214678, Final residual = 0.00118348, No Iterations 3
Pressure gradient source: uncorrected Ubar = 1, pressure gradient = 0.00469742
GAMG:  Solving for p, Initial residual = 0.00335734, Final residual = 0.000202052, No Iterations 6
time step continuity errors : sum local = 1.55498e-08, global = -1.40423e-18, cumulative = 4.34266e-17
Pressure gradient source: uncorrected Ubar = 1, pressure gradient = 0.00469699
smoothSolver:  Solving for omega, Initial residual = 7.23882e-06, Final residual = 7.23882e-06, No Iterations 0
smoothSolver:  Solving for k, Initial residual = 9.84194e-05, Final residual = 7.67917e-06, No Iterations 5
ExecutionTime = 0.596658 s  ClockTime = 1 s

Time = 280s

smoothSolver:  Solving for Ux, Initial residual = 7.02187e-06, Final residual = 7.02187e-06, No Iterations 0
smoothSolver:  Solving for Uy, Initial residual = 0.0231643, Final residual = 0.00131151, No Iterations 3
Pressure gradient source: uncorrected Ubar = 1, pressure gradient = 0.00469699
GAMG:  Solving for p, Initial residual = 0.00349215, Final residual = 0.000312283, No Iterations 4
time step continuity errors : sum local = 2.40871e-08, global = 6.63848e-18, cumulative = 5.00651e-17
Pressure gradient source: uncorrected Ubar = 1, pressure gradient = 0.00469655
smoothSolver:  Solving for omega, Initial residual = 7.23994e-06, Final residual = 7.23994e-06, No Iterations 0
smoothSolver:  Solving for k, Initial residual = 9.8043e-05, Final residual = 7.93909e-06, No Iterations 5
ExecutionTime = 0.598578 s  ClockTime = 1 s

Time = 281s

smoothSolver:  Solving for Ux, Initial residual = 6.58756e-06, Final residual = 6.58756e-06, No Iterations 0
smoothSolver:  Solving for Uy, Initial residual = 0.0260839, Final residual = 0.00166355, No Iterations 3
Pressure gradient source: uncorrected Ubar = 1, pressure gradient = 0.00469655
GAMG:  Solving for p, Initial residual = 0.0039896, Final residual = 0.000396225, No Iterations 4
time step continuity errors : sum local = 3.03377e-08, global = 8.80047e-19, cumulative = 5.09451e-17
Pressure gradient source: uncorrected Ubar = 1, pressure gradient = 0.00469609
smoothSolver:  Solving for omega, Initial residual = 7.24107e-06, Final residual = 7.24107e-06, No Iterations 0
smoothSolver:  Solving for k, Initial residual = 9.675e-05, Final residual = 7.04615e-06, No Iterations 5
ExecutionTime = 0.600489 s  ClockTime = 1 s

Time = 282s

smoothSolver:  Solving for Ux, Initial residual = 6.29634e-06, Final residual = 6.29634e-06, No Iterations 0
smoothSolver:  Solving for Uy, Initial residual = 0.0211357, Final residual = 0.00133657, No Iterations 3
Pressure gradient source: uncorrected Ubar = 1, pressure gradient = 0.00469609
GAMG:  Solving for p, Initial residual = 0.00332308, Final residual = 0.000330265, No Iterations 6
time step continuity errors : sum local = 2.84649e-08, global = 1.00459e-17, cumulative = 6.09911e-17
Pressure gradient source: uncorrected Ubar = 1, pressure gradient = 0.00469565
smoothSolver:  Solving for omega, Initial residual = 7.24277e-06, Final residual = 7.24277e-06, No Iterations 0
smoothSolver:  Solving for k, Initial residual = 9.74394e-05, Final residual = 7.73533e-06, No Iterations 5
ExecutionTime = 0.602451 s  ClockTime = 1 s

Time = 283s

smoothSolver:  Solving for Ux, Initial residual = 6.18442e-06, Final residual = 6.18442e-06, No Iterations 0
smoothSolver:  Solving for Uy, Initial residual = 0.021833, Final residual = 0.00138741, No Iterations 3
Pressure gradient source: uncorrected Ubar = 1, pressure gradient = 0.00469565
GAMG:  Solving for p, Initial residual = 0.00300294, Final residual = 0.000288779, No Iterations 7
time step continuity errors : sum local = 2.13624e-08, global = 6.27361e-18, cumulative = 6.72647e-17
Pressure gradient source: uncorrected Ubar = 1, pressure gradient = 0.00469519
smoothSolver:  Solving for omega, Initial residual = 7.24315e-06, Final residual = 7.24315e-06, No Iterations 0
smoothSolver:  Solving for k, Initial residual = 9.75112e-05, Final residual = 7.61701e-06, No Iterations 5
ExecutionTime = 0.604574 s  ClockTime = 1 s

Time = 284s

smoothSolver:  Solving for Ux, Initial residual = 6.06294e-06, Final residual = 6.06294e-06, No Iterations 0
smoothSolver:  Solving for Uy, Initial residual = 0.0164354, Final residual = 0.0011347, No Iterations 3
Pressure gradient source: uncorrected Ubar = 1, pressure gradient = 0.00469519
GAMG:  Solving for p, Initial residual = 0.00288571, Final residual = 0.000258183, No Iterations 7
time step continuity errors : sum local = 2.1143e-08, global = -2.10788e-18, cumulative = 6.51568e-17
Pressure gradient source: uncorrected Ubar = 1, pressure gradient = 0.00469474
smoothSolver:  Solving for omega, Initial residual = 7.24477e-06, Final residual = 7.24477e-06, No Iterations 0
smoothSolver:  Solving for k, Initial residual = 9.6777e-05, Final residual = 8.45058e-06, No Iterations 5
ExecutionTime = 0.606841 s  ClockTime = 1 s

Time = 285s

smoothSolver:  Solving for Ux, Initial residual = 6.11466e-06, Final residual = 6.11466e-06, No Iterations 0
smoothSolver:  Solving for Uy, Initial residual = 0.0160817, Final residual = 0.000992729, No Iterations 3
Pressure gradient source: uncorrected Ubar = 1, pressure gradient = 0.00469474
GAMG:  Solving for p, Initial residual = 0.00315082, Final residual = 0.000254781, No Iterations 7
time step continuity errors : sum local = 2.03075e-08, global = -3.92213e-18, cumulative = 6.12347e-17
Pressure gradient source: uncorrected Ubar = 1, pressure gradient = 0.00469426
smoothSolver:  Solving for omega, Initial residual = 7.24604e-06, Final residual = 7.24604e-06, No Iterations 0
smoothSolver:  Solving for k, Initial residual = 9.5055e-05, Final residual = 7.27409e-06, No Iterations 5
ExecutionTime = 0.609001 s  ClockTime = 1 s

Time = 286s

smoothSolver:  Solving for Ux, Initial residual = 6.26595e-06, Final residual = 6.26595e-06, No Iterations 0
smoothSolver:  Solving for Uy, Initial residual = 0.0160369, Final residual = 0.00101389, No Iterations 3
Pressure gradient source: uncorrected Ubar = 1, pressure gradient = 0.00469426
GAMG:  Solving for p, Initial residual = 0.00258484, Final residual = 0.000221884, No Iterations 8
time step continuity errors : sum local = 1.76068e-08, global = -3.79297e-18, cumulative = 5.74417e-17
Pressure gradient source: uncorrected Ubar = 1, pressure gradient = 0.00469381
smoothSolver:  Solving for omega, Initial residual = 7.24746e-06, Final residual = 7.24746e-06, No Iterations 0
smoothSolver:  Solving for k, Initial residual = 9.57436e-05, Final residual = 7.27318e-06, No Iterations 5
ExecutionTime = 0.611162 s  ClockTime = 1 s

Time = 287s

smoothSolver:  Solving for Ux, Initial residual = 6.51193e-06, Final residual = 6.51193e-06, No Iterations 0
smoothSolver:  Solving for Uy, Initial residual = 0.0123662, Final residual = 0.00088726, No Iterations 3
Pressure gradient source: uncorrected Ubar = 1, pressure gradient = 0.00469381
GAMG:  Solving for p, Initial residual = 0.00192896, Final residual = 0.000151581, No Iterations 10
time step continuity errors : sum local = 1.18182e-08, global = -2.89451e-18, cumulative = 5.45472e-17
Pressure gradient source: uncorrected Ubar = 1, pressure gradient = 0.00469339
smoothSolver:  Solving for omega, Initial residual = 7.24877e-06, Final residual = 7.24877e-06, No Iterations 0
smoothSolver:  Solving for k, Initial residual = 9.4732e-05, Final residual = 7.62767e-06, No Iterations 5
ExecutionTime = 0.61324 s  ClockTime = 1 s

Time = 288s

smoothSolver:  Solving for Ux, Initial residual = 6.99532e-06, Final residual = 6.99532e-06, No Iterations 0
smoothSolver:  Solving for Uy, Initial residual = 0.00905, Final residual = 0.000590686, No Iterations 3
Pressure gradient source: uncorrected Ubar = 1, pressure gradient = 0.00469339
GAMG:  Solving for p, Initial residual = 0.00220463, Final residual = 0.000211306, No Iterations 7
time step continuity errors : sum local = 1.55295e-08, global = -3.89909e-18, cumulative = 5.06481e-17
Pressure gradient source: uncorrected Ubar = 1, pressure gradient = 0.00469294
smoothSolver:  Solving for omega, Initial residual = 7.2504e-06, Final residual = 7.2504e-06, No Iterations 0
smoothSolver:  Solving for k, Initial residual = 9.37218e-05, Final residual = 7.51614e-06, No Iterations 5
ExecutionTime = 0.61526 s  ClockTime = 1 s


SIMPLE solution converged in 288 iterations

End

