/*---------------------------------------------------------------------------*\
  =========                 |
  \\      /  F ield         | OpenFOAM: The Open Source CFD Toolbox
   \\    /   O peration     | Website:  https://openfoam.org
    \\  /    A nd           | Version:  10
     \\/     M anipulation  |
\*---------------------------------------------------------------------------*/
Build  : 10-e450dce21ea5
Exec   : blockMesh
Date   : Feb 20 2023
Time   : 14:15:14
Host   : "w530-R9YK46P"
PID    : 18854
I/O    : uncollated
Case   : /home/jdmezazeron/gitDanielMezaZ/turbulenceVisualized/Data/SimulationFiles/K30_Re2981
nProcs : 1
sigFpe : Enabling floating point exception trapping (FOAM_SIGFPE).
fileModificationChecking : Monitoring run-time modified files using timeStampMaster (fileModificationSkew 10)
allowSystemOperations : Allowing user-supplied system call operations

// * * * * * * * * * * * * * * * * * * * * * * * * * * * * * * * * * * * * * //
Create time

Deleting polyMesh directory
    "/home/jdmezazeron/gitDanielMezaZ/turbulenceVisualized/Data/SimulationFiles/K30_Re2981/constant/polyMesh"
Reading "blockMeshDict"

Creating block mesh from
    "system/blockMeshDict"
Creating block edges
No non-planar block faces defined
Creating topology blocks
Creating topology patches

Creating block mesh topology

Check topology

	Basic statistics
		Number of internal faces : 0
		Number of boundary faces : 6
		Number of defined boundary faces : 6
		Number of undefined boundary faces : 0
	Checking patch -> block consistency

Creating block offsets
Creating merge list .

Creating polyMesh from blockMesh
Creating patches
Creating cells
Creating points with scale 1
    Block 0 cell size :
        i : 0.5
        j : 0.00461374 .. 0.018455
        k : 2

Detected cyclic patches; ordering boundary faces

Writing polyMesh
----------------
Mesh Information
----------------
  boundingBox: (-1 0 -1) (1 1 1)
  nPoints: 1010
  nCells: 400
  nFaces: 1704
  nInternalFaces: 696
----------------
Patches
----------------
  patch 0 (start: 696 size: 100) name: inlet
  patch 1 (start: 796 size: 100) name: outlet
  patch 2 (start: 896 size: 4) name: fixedWalls-bottom
  patch 3 (start: 900 size: 4) name: fixedWalls-top
  patch 4 (start: 904 size: 800) name: frontAndBack

End

/*---------------------------------------------------------------------------*\
  =========                 |
  \\      /  F ield         | OpenFOAM: The Open Source CFD Toolbox
   \\    /   O peration     | Website:  https://openfoam.org
    \\  /    A nd           | Version:  10
     \\/     M anipulation  |
\*---------------------------------------------------------------------------*/
Build  : 10-e450dce21ea5
Exec   : simpleFoam
Date   : Feb 20 2023
Time   : 14:15:14
Host   : "w530-R9YK46P"
PID    : 18855
I/O    : uncollated
Case   : /home/jdmezazeron/gitDanielMezaZ/turbulenceVisualized/Data/SimulationFiles/K30_Re2981
nProcs : 1
sigFpe : Enabling floating point exception trapping (FOAM_SIGFPE).
fileModificationChecking : Monitoring run-time modified files using timeStampMaster (fileModificationSkew 10)
allowSystemOperations : Allowing user-supplied system call operations

// * * * * * * * * * * * * * * * * * * * * * * * * * * * * * * * * * * * * * //
Create time

Create mesh for time = 0


SIMPLE: Convergence criteria found
        U: tolerance 0.0001
        p: tolerance 0.01
        omega: tolerance 0.0001

Reading field p

Reading field U

Reading/calculating face flux field phi

Selecting viscosity model Newtonian
Selecting turbulence model type RAS
Selecting RAS turbulence model kOmegaSST
Selecting patchDistMethod meshWave
RAS
{
    RASModel        kOmegaSST;
    turbulence      on;
    printCoeffs     on;
    alphaK1         0.85;
    alphaK2         1;
    alphaOmega1     0.5;
    alphaOmega2     0.856;
    gamma1          0.555556;
    gamma2          0.44;
    beta1           0.075;
    beta2           0.0828;
    betaStar        0.09;
    a1              0.31;
    b1              1;
    c1              10;
    F3              false;
}

No MRF models present

--> FOAM Warning : Creating fvModels from "system/fvOptions" rather than constant/fvModels
No fvModels present
--> FOAM Warning : Creating fvConstraints from "system/fvOptions"

Selecting finite volume constraint type meanVelocityForce
    Name: momentumSource
    - selecting all cells
    - selected 400 cell(s) with volume 4
    Initial pressure gradient = 0


Starting time loop

turbulenceFields stressComponents: storing fields:
    R

Time = 1s

smoothSolver:  Solving for Ux, Initial residual = 0, Final residual = 0, No Iterations 0
smoothSolver:  Solving for Uy, Initial residual = 0, Final residual = 0, No Iterations 0
Pressure gradient source: uncorrected Ubar = 0, pressure gradient = 1198.44
GAMG:  Solving for p, Initial residual = 0.999996, Final residual = 0.0771323, No Iterations 3
time step continuity errors : sum local = 9.25508e-17, global = 4.04035e-18, cumulative = 4.04035e-18
Pressure gradient source: uncorrected Ubar = 0.884653, pressure gradient = 138.237
smoothSolver:  Solving for omega, Initial residual = 0.230798, Final residual = 0.013945, No Iterations 3
smoothSolver:  Solving for k, Initial residual = 1, Final residual = 0.0795751, No Iterations 3
ExecutionTime = 0.014156 s  ClockTime = 0 s

Time = 2s

smoothSolver:  Solving for Ux, Initial residual = 0.991705, Final residual = 0.0933474, No Iterations 6
smoothSolver:  Solving for Uy, Initial residual = 1, Final residual = 0.0937959, No Iterations 5
Pressure gradient source: uncorrected Ubar = 51.839, pressure gradient = -1027.65
GAMG:  Solving for p, Initial residual = 1, Final residual = 0.0910785, No Iterations 15
time step continuity errors : sum local = 0.0416334, global = -5.76253e-17, cumulative = -5.3585e-17
Pressure gradient source: uncorrected Ubar = 7.59488, pressure gradient = -13.0026
smoothSolver:  Solving for omega, Initial residual = 0.187015, Final residual = 0.00152549, No Iterations 1
smoothSolver:  Solving for k, Initial residual = 0.955314, Final residual = 0.0749167, No Iterations 1
ExecutionTime = 0.017284 s  ClockTime = 0 s

Time = 3s

smoothSolver:  Solving for Ux, Initial residual = 0.432631, Final residual = 0.0358022, No Iterations 6
smoothSolver:  Solving for Uy, Initial residual = 0.60425, Final residual = 0.0333608, No Iterations 2
Pressure gradient source: uncorrected Ubar = -1.63495, pressure gradient = 96.6175
GAMG:  Solving for p, Initial residual = 0.214691, Final residual = 0.0148481, No Iterations 7
time step continuity errors : sum local = 0.0148791, global = -1.02931e-17, cumulative = -6.38781e-17
Pressure gradient source: uncorrected Ubar = 0.584139, pressure gradient = 4.29815
smoothSolver:  Solving for omega, Initial residual = 0.0114628, Final residual = 0.000658726, No Iterations 1
smoothSolver:  Solving for k, Initial residual = 0.49323, Final residual = 0.0396277, No Iterations 2
ExecutionTime = 0.01991 s  ClockTime = 0 s

Time = 4s

smoothSolver:  Solving for Ux, Initial residual = 0.169855, Final residual = 0.0134094, No Iterations 5
smoothSolver:  Solving for Uy, Initial residual = 0.418585, Final residual = 0.0388376, No Iterations 2
Pressure gradient source: uncorrected Ubar = 1.92577, pressure gradient = -23.697
GAMG:  Solving for p, Initial residual = 0.149102, Final residual = 0.0130939, No Iterations 12
time step continuity errors : sum local = 0.0269203, global = -6.19622e-17, cumulative = -1.2584e-16
Pressure gradient source: uncorrected Ubar = 1.11986, pressure gradient = 0.673619
smoothSolver:  Solving for omega, Initial residual = 0.0088909, Final residual = 0.000800425, No Iterations 1
smoothSolver:  Solving for k, Initial residual = 0.605487, Final residual = 0.0346458, No Iterations 2
ExecutionTime = 0.022778 s  ClockTime = 0 s

Time = 5s

smoothSolver:  Solving for Ux, Initial residual = 0.117292, Final residual = 0.0077673, No Iterations 4
smoothSolver:  Solving for Uy, Initial residual = 0.610247, Final residual = 0.0522565, No Iterations 2
Pressure gradient source: uncorrected Ubar = 0.971781, pressure gradient = 1.63116
GAMG:  Solving for p, Initial residual = 0.215271, Final residual = 0.0204462, No Iterations 10
time step continuity errors : sum local = 0.0376279, global = 8.9135e-17, cumulative = -3.67053e-17
Pressure gradient source: uncorrected Ubar = 0.994623, pressure gradient = 0.856054
smoothSolver:  Solving for omega, Initial residual = 0.0107536, Final residual = 0.000439182, No Iterations 2
bounding omega, min: -0.610847 max: 10084.1 average: 168.677
smoothSolver:  Solving for k, Initial residual = 0.71478, Final residual = 0.0197304, No Iterations 2
ExecutionTime = 0.025646 s  ClockTime = 0 s

Time = 6s

smoothSolver:  Solving for Ux, Initial residual = 0.101126, Final residual = 0.00863451, No Iterations 3
smoothSolver:  Solving for Uy, Initial residual = 0.642809, Final residual = 0.0554919, No Iterations 2
Pressure gradient source: uncorrected Ubar = 0.940035, pressure gradient = 3.1326
GAMG:  Solving for p, Initial residual = 0.403744, Final residual = 0.0397224, No Iterations 10
time step continuity errors : sum local = 0.0677688, global = 1.24792e-16, cumulative = 8.80864e-17
Pressure gradient source: uncorrected Ubar = 0.987111, pressure gradient = 1.34538
smoothSolver:  Solving for omega, Initial residual = 0.0191579, Final residual = 0.000748009, No Iterations 2
bounding omega, min: -1.43879 max: 10084.1 average: 185.735
smoothSolver:  Solving for k, Initial residual = 0.437046, Final residual = 0.0116918, No Iterations 2
ExecutionTime = 0.028496 s  ClockTime = 0 s

Time = 7s

smoothSolver:  Solving for Ux, Initial residual = 0.0683575, Final residual = 0.00474301, No Iterations 4
smoothSolver:  Solving for Uy, Initial residual = 0.508281, Final residual = 0.0196846, No Iterations 3
Pressure gradient source: uncorrected Ubar = 0.94092, pressure gradient = 3.8941
GAMG:  Solving for p, Initial residual = 0.354629, Final residual = 0.0350412, No Iterations 9
time step continuity errors : sum local = 0.0693676, global = 1.49484e-17, cumulative = 1.03035e-16
Pressure gradient source: uncorrected Ubar = 0.997055, pressure gradient = 1.47241
smoothSolver:  Solving for omega, Initial residual = 0.0248904, Final residual = 0.000686456, No Iterations 2
smoothSolver:  Solving for k, Initial residual = 0.228794, Final residual = 0.00815417, No Iterations 2
ExecutionTime = 0.031215 s  ClockTime = 0 s

Time = 8s

smoothSolver:  Solving for Ux, Initial residual = 0.0693926, Final residual = 0.0049438, No Iterations 4
smoothSolver:  Solving for Uy, Initial residual = 0.503468, Final residual = 0.01991, No Iterations 3
Pressure gradient source: uncorrected Ubar = 0.952289, pressure gradient = 3.82641
GAMG:  Solving for p, Initial residual = 0.268606, Final residual = 0.0253044, No Iterations 10
time step continuity errors : sum local = 0.0701102, global = -8.34836e-17, cumulative = 1.95512e-17
Pressure gradient source: uncorrected Ubar = 1.00029, pressure gradient = 1.45816
smoothSolver:  Solving for omega, Initial residual = 0.0152575, Final residual = 0.000714004, No Iterations 2
smoothSolver:  Solving for k, Initial residual = 0.200522, Final residual = 0.0152197, No Iterations 2
ExecutionTime = 0.033992 s  ClockTime = 0 s

Time = 9s

smoothSolver:  Solving for Ux, Initial residual = 0.0470166, Final residual = 0.00340573, No Iterations 4
smoothSolver:  Solving for Uy, Initial residual = 0.470586, Final residual = 0.0221878, No Iterations 3
Pressure gradient source: uncorrected Ubar = 0.909992, pressure gradient = 6.87594
GAMG:  Solving for p, Initial residual = 0.275154, Final residual = 0.0165893, No Iterations 7
time step continuity errors : sum local = 0.0511679, global = -4.9277e-17, cumulative = -2.97258e-17
Pressure gradient source: uncorrected Ubar = 0.986277, pressure gradient = 2.2842
smoothSolver:  Solving for omega, Initial residual = 0.0101135, Final residual = 0.000512835, No Iterations 2
smoothSolver:  Solving for k, Initial residual = 0.168679, Final residual = 0.00941159, No Iterations 3
ExecutionTime = 0.036647 s  ClockTime = 0 s

Time = 10s

smoothSolver:  Solving for Ux, Initial residual = 0.0352878, Final residual = 0.00301264, No Iterations 4
smoothSolver:  Solving for Uy, Initial residual = 0.383595, Final residual = 0.0183577, No Iterations 3
Pressure gradient source: uncorrected Ubar = 0.982035, pressure gradient = 3.48669
GAMG:  Solving for p, Initial residual = 0.328898, Final residual = 0.0290603, No Iterations 10
time step continuity errors : sum local = 0.0597437, global = -8.89723e-18, cumulative = -3.8623e-17
Pressure gradient source: uncorrected Ubar = 0.99488, pressure gradient = 2.62692
smoothSolver:  Solving for omega, Initial residual = 0.00843897, Final residual = 0.000781481, No Iterations 2
smoothSolver:  Solving for k, Initial residual = 0.127051, Final residual = 0.010481, No Iterations 3
ExecutionTime = 0.039443 s  ClockTime = 0 s

Time = 11s

smoothSolver:  Solving for Ux, Initial residual = 0.027402, Final residual = 0.00255265, No Iterations 4
smoothSolver:  Solving for Uy, Initial residual = 0.445802, Final residual = 0.0244214, No Iterations 3
Pressure gradient source: uncorrected Ubar = 0.983089, pressure gradient = 3.92264
GAMG:  Solving for p, Initial residual = 0.329616, Final residual = 0.0289828, No Iterations 5
time step continuity errors : sum local = 0.0611762, global = 5.61617e-17, cumulative = 1.75387e-17
Pressure gradient source: uncorrected Ubar = 0.995544, pressure gradient = 2.96831
smoothSolver:  Solving for omega, Initial residual = 0.00854888, Final residual = 0.000430143, No Iterations 3
smoothSolver:  Solving for k, Initial residual = 0.101087, Final residual = 0.00521204, No Iterations 4
ExecutionTime = 0.04203 s  ClockTime = 0 s

Time = 12s

smoothSolver:  Solving for Ux, Initial residual = 0.022841, Final residual = 0.00225137, No Iterations 4
smoothSolver:  Solving for Uy, Initial residual = 0.439978, Final residual = 0.024804, No Iterations 3
Pressure gradient source: uncorrected Ubar = 0.990316, pressure gradient = 3.80364
GAMG:  Solving for p, Initial residual = 0.225945, Final residual = 0.017081, No Iterations 9
time step continuity errors : sum local = 0.0514804, global = 8.23994e-18, cumulative = 2.57786e-17
Pressure gradient source: uncorrected Ubar = 0.999288, pressure gradient = 3.0297
smoothSolver:  Solving for omega, Initial residual = 0.00662377, Final residual = 0.000497167, No Iterations 3
smoothSolver:  Solving for k, Initial residual = 0.0847583, Final residual = 0.00583905, No Iterations 4
ExecutionTime = 0.0448 s  ClockTime = 0 s

Time = 13s

smoothSolver:  Solving for Ux, Initial residual = 0.0197421, Final residual = 0.00129639, No Iterations 5
smoothSolver:  Solving for Uy, Initial residual = 0.328003, Final residual = 0.0210616, No Iterations 3
Pressure gradient source: uncorrected Ubar = 0.981268, pressure gradient = 4.83565
GAMG:  Solving for p, Initial residual = 0.19003, Final residual = 0.0129651, No Iterations 8
time step continuity errors : sum local = 0.0387387, global = -2.77556e-17, cumulative = -1.97697e-18
Pressure gradient source: uncorrected Ubar = 0.999002, pressure gradient = 3.12588
smoothSolver:  Solving for omega, Initial residual = 0.00617828, Final residual = 0.000617626, No Iterations 3
smoothSolver:  Solving for k, Initial residual = 0.0703589, Final residual = 0.00596973, No Iterations 4
ExecutionTime = 0.047518 s  ClockTime = 0 s

Time = 14s

smoothSolver:  Solving for Ux, Initial residual = 0.0176629, Final residual = 0.00118059, No Iterations 5
smoothSolver:  Solving for Uy, Initial residual = 0.324548, Final residual = 0.0198538, No Iterations 3
Pressure gradient source: uncorrected Ubar = 0.986814, pressure gradient = 4.50873
GAMG:  Solving for p, Initial residual = 0.188115, Final residual = 0.0156947, No Iterations 10
time step continuity errors : sum local = 0.0309688, global = -1.85907e-17, cumulative = -2.05676e-17
Pressure gradient source: uncorrected Ubar = 0.999055, pressure gradient = 3.225
smoothSolver:  Solving for omega, Initial residual = 0.0064825, Final residual = 0.000636911, No Iterations 3
smoothSolver:  Solving for k, Initial residual = 0.0600405, Final residual = 0.00596965, No Iterations 4
ExecutionTime = 0.050326 s  ClockTime = 0 s

Time = 15s

smoothSolver:  Solving for Ux, Initial residual = 0.0159609, Final residual = 0.00109629, No Iterations 5
smoothSolver:  Solving for Uy, Initial residual = 0.331472, Final residual = 0.0259697, No Iterations 3
Pressure gradient source: uncorrected Ubar = 0.994914, pressure gradient = 3.81604
GAMG:  Solving for p, Initial residual = 0.222502, Final residual = 0.0220453, No Iterations 10
time step continuity errors : sum local = 0.0368691, global = -1.10155e-16, cumulative = -1.30723e-16
Pressure gradient source: uncorrected Ubar = 0.999209, pressure gradient = 3.31696
smoothSolver:  Solving for omega, Initial residual = 0.00555519, Final residual = 0.000376676, No Iterations 4
smoothSolver:  Solving for k, Initial residual = 0.0526679, Final residual = 0.00341717, No Iterations 5
ExecutionTime = 0.05316 s  ClockTime = 0 s

Time = 16s

smoothSolver:  Solving for Ux, Initial residual = 0.0146178, Final residual = 0.00102534, No Iterations 5
smoothSolver:  Solving for Uy, Initial residual = 0.30132, Final residual = 0.0261636, No Iterations 3
Pressure gradient source: uncorrected Ubar = 0.996766, pressure gradient = 3.73239
GAMG:  Solving for p, Initial residual = 0.168278, Final residual = 0.0153155, No Iterations 9
time step continuity errors : sum local = 0.0346416, global = -6.47641e-18, cumulative = -1.37199e-16
Pressure gradient source: uncorrected Ubar = 0.999834, pressure gradient = 3.33825
smoothSolver:  Solving for omega, Initial residual = 0.00517289, Final residual = 0.000377879, No Iterations 4
smoothSolver:  Solving for k, Initial residual = 0.0472263, Final residual = 0.00338142, No Iterations 5
ExecutionTime = 0.055923 s  ClockTime = 0 s

Time = 17s

smoothSolver:  Solving for Ux, Initial residual = 0.0135777, Final residual = 0.000968373, No Iterations 5
smoothSolver:  Solving for Uy, Initial residual = 0.29819, Final residual = 0.0245403, No Iterations 3
Pressure gradient source: uncorrected Ubar = 0.997428, pressure gradient = 3.70416
GAMG:  Solving for p, Initial residual = 0.105934, Final residual = 0.00972268, No Iterations 9
time step continuity errors : sum local = 0.0318888, global = 1.05168e-17, cumulative = -1.26682e-16
Pressure gradient source: uncorrected Ubar = 0.999554, pressure gradient = 3.40173
smoothSolver:  Solving for omega, Initial residual = 0.0051463, Final residual = 0.000399131, No Iterations 4
smoothSolver:  Solving for k, Initial residual = 0.0415793, Final residual = 0.0032364, No Iterations 5
ExecutionTime = 0.058713 s  ClockTime = 0 s

Time = 18s

smoothSolver:  Solving for Ux, Initial residual = 0.0127316, Final residual = 0.000923474, No Iterations 5
smoothSolver:  Solving for Uy, Initial residual = 0.216785, Final residual = 0.019826, No Iterations 3
Pressure gradient source: uncorrected Ubar = 1.00179, pressure gradient = 3.12214
GAMG:  Solving for p, Initial residual = 0.0721389, Final residual = 0.00533484, No Iterations 10
time step continuity errors : sum local = 0.0239838, global = 1.73472e-18, cumulative = -1.24948e-16
Pressure gradient source: uncorrected Ubar = 0.999819, pressure gradient = 3.43002
smoothSolver:  Solving for omega, Initial residual = 0.00484063, Final residual = 0.000397657, No Iterations 4
smoothSolver:  Solving for k, Initial residual = 0.0377494, Final residual = 0.00320182, No Iterations 5
ExecutionTime = 0.061536 s  ClockTime = 0 s

Time = 19s

smoothSolver:  Solving for Ux, Initial residual = 0.0120226, Final residual = 0.000884595, No Iterations 5
smoothSolver:  Solving for Uy, Initial residual = 0.160673, Final residual = 0.00865535, No Iterations 4
Pressure gradient source: uncorrected Ubar = 1.00433, pressure gradient = 2.69187
GAMG:  Solving for p, Initial residual = 0.0553317, Final residual = 0.00542134, No Iterations 8
time step continuity errors : sum local = 0.0250324, global = -2.60615e-17, cumulative = -1.51009e-16
Pressure gradient source: uncorrected Ubar = 1.00064, pressure gradient = 3.32137
smoothSolver:  Solving for omega, Initial residual = 0.00474914, Final residual = 0.000408186, No Iterations 4
smoothSolver:  Solving for k, Initial residual = 0.0346984, Final residual = 0.00317491, No Iterations 5
ExecutionTime = 0.064263 s  ClockTime = 0 s

Time = 20s

smoothSolver:  Solving for Ux, Initial residual = 0.0113674, Final residual = 0.000845751, No Iterations 5
smoothSolver:  Solving for Uy, Initial residual = 0.146028, Final residual = 0.00812385, No Iterations 4
Pressure gradient source: uncorrected Ubar = 1.00309, pressure gradient = 2.75197
GAMG:  Solving for p, Initial residual = 0.0456904, Final residual = 0.00440824, No Iterations 9
time step continuity errors : sum local = 0.0168592, global = 4.60633e-17, cumulative = -1.04946e-16
Pressure gradient source: uncorrected Ubar = 1.00037, pressure gradient = 3.2533
smoothSolver:  Solving for omega, Initial residual = 0.00459078, Final residual = 0.000409511, No Iterations 4
smoothSolver:  Solving for k, Initial residual = 0.0313848, Final residual = 0.00298549, No Iterations 5
ExecutionTime = 0.067079 s  ClockTime = 0 s

Time = 21s

smoothSolver:  Solving for Ux, Initial residual = 0.0108143, Final residual = 0.000813374, No Iterations 5
smoothSolver:  Solving for Uy, Initial residual = 0.139722, Final residual = 0.0090863, No Iterations 4
Pressure gradient source: uncorrected Ubar = 1.00413, pressure gradient = 2.44011
GAMG:  Solving for p, Initial residual = 0.0424951, Final residual = 0.00421321, No Iterations 9
time step continuity errors : sum local = 0.0122982, global = -7.98413e-17, cumulative = -1.84787e-16
Pressure gradient source: uncorrected Ubar = 1.00066, pressure gradient = 3.12414
smoothSolver:  Solving for omega, Initial residual = 0.00427303, Final residual = 0.000400326, No Iterations 4
smoothSolver:  Solving for k, Initial residual = 0.0285839, Final residual = 0.002798, No Iterations 5
ExecutionTime = 0.069875 s  ClockTime = 0 s

Time = 22s

smoothSolver:  Solving for Ux, Initial residual = 0.0103212, Final residual = 0.000784372, No Iterations 5
smoothSolver:  Solving for Uy, Initial residual = 0.138217, Final residual = 0.0110711, No Iterations 4
Pressure gradient source: uncorrected Ubar = 1.00352, pressure gradient = 2.38582
GAMG:  Solving for p, Initial residual = 0.047028, Final residual = 0.00464248, No Iterations 9
time step continuity errors : sum local = 0.0096126, global = -3.49088e-17, cumulative = -2.19696e-16
Pressure gradient source: uncorrected Ubar = 1.00042, pressure gradient = 3.03507
smoothSolver:  Solving for omega, Initial residual = 0.00397639, Final residual = 0.00026113, No Iterations 5
smoothSolver:  Solving for k, Initial residual = 0.0262661, Final residual = 0.00168376, No Iterations 6
ExecutionTime = 0.072706 s  ClockTime = 0 s

Time = 23s

smoothSolver:  Solving for Ux, Initial residual = 0.0098941, Final residual = 0.000759255, No Iterations 5
smoothSolver:  Solving for Uy, Initial residual = 0.139789, Final residual = 0.0116137, No Iterations 4
Pressure gradient source: uncorrected Ubar = 1.00393, pressure gradient = 2.16724
GAMG:  Solving for p, Initial residual = 0.0571281, Final residual = 0.00548729, No Iterations 11
time step continuity errors : sum local = 0.00868975, global = 7.04816e-18, cumulative = -2.12648e-16
Pressure gradient source: uncorrected Ubar = 1.00049, pressure gradient = 2.92663
smoothSolver:  Solving for omega, Initial residual = 0.00358405, Final residual = 0.000243624, No Iterations 5
smoothSolver:  Solving for k, Initial residual = 0.024353, Final residual = 0.00162223, No Iterations 6
ExecutionTime = 0.075601 s  ClockTime = 0 s

Time = 24s

smoothSolver:  Solving for Ux, Initial residual = 0.0094977, Final residual = 0.000736581, No Iterations 5
smoothSolver:  Solving for Uy, Initial residual = 0.128449, Final residual = 0.0111845, No Iterations 4
Pressure gradient source: uncorrected Ubar = 1.00416, pressure gradient = 1.95889
GAMG:  Solving for p, Initial residual = 0.10411, Final residual = 0.00985113, No Iterations 11
time step continuity errors : sum local = 0.00774591, global = -4.42922e-17, cumulative = -2.5694e-16
Pressure gradient source: uncorrected Ubar = 1.00048, pressure gradient = 2.81494
smoothSolver:  Solving for omega, Initial residual = 0.00314146, Final residual = 0.000247401, No Iterations 5
smoothSolver:  Solving for k, Initial residual = 0.0226276, Final residual = 0.0015522, No Iterations 6
ExecutionTime = 0.078527 s  ClockTime = 0 s

Time = 25s

smoothSolver:  Solving for Ux, Initial residual = 0.00915826, Final residual = 0.000717141, No Iterations 5
smoothSolver:  Solving for Uy, Initial residual = 0.104793, Final residual = 0.00995499, No Iterations 4
Pressure gradient source: uncorrected Ubar = 1.00335, pressure gradient = 1.99834
GAMG:  Solving for p, Initial residual = 0.0486232, Final residual = 0.00434403, No Iterations 11
time step continuity errors : sum local = 0.00674711, global = -6.25043e-17, cumulative = -3.19444e-16
Pressure gradient source: uncorrected Ubar = 1.00036, pressure gradient = 2.72644
smoothSolver:  Solving for omega, Initial residual = 0.00283597, Final residual = 0.000230923, No Iterations 5
smoothSolver:  Solving for k, Initial residual = 0.0210088, Final residual = 0.00147825, No Iterations 6
ExecutionTime = 0.081423 s  ClockTime = 0 s

Time = 26s

smoothSolver:  Solving for Ux, Initial residual = 0.00884174, Final residual = 0.000698459, No Iterations 5
smoothSolver:  Solving for Uy, Initial residual = 0.0850445, Final residual = 0.00551798, No Iterations 5
Pressure gradient source: uncorrected Ubar = 1.00346, pressure gradient = 1.84018
GAMG:  Solving for p, Initial residual = 0.0260697, Final residual = 0.00239927, No Iterations 11
time step continuity errors : sum local = 0.00538622, global = -3.73779e-17, cumulative = -3.56822e-16
Pressure gradient source: uncorrected Ubar = 1.00038, pressure gradient = 2.63027
smoothSolver:  Solving for omega, Initial residual = 0.00260868, Final residual = 0.000235708, No Iterations 5
smoothSolver:  Solving for k, Initial residual = 0.0194337, Final residual = 0.00139468, No Iterations 6
ExecutionTime = 0.084323 s  ClockTime = 0 s

Time = 27s

smoothSolver:  Solving for Ux, Initial residual = 0.0085622, Final residual = 0.00068284, No Iterations 5
smoothSolver:  Solving for Uy, Initial residual = 0.0766801, Final residual = 0.00492769, No Iterations 5
Pressure gradient source: uncorrected Ubar = 1.00265, pressure gradient = 1.92279
GAMG:  Solving for p, Initial residual = 0.0153852, Final residual = 0.00150766, No Iterations 15
time step continuity errors : sum local = 0.00418117, global = -1.43792e-17, cumulative = -3.71201e-16
Pressure gradient source: uncorrected Ubar = 1.00027, pressure gradient = 2.55878
smoothSolver:  Solving for omega, Initial residual = 0.00239936, Final residual = 0.000218691, No Iterations 5
smoothSolver:  Solving for k, Initial residual = 0.0180525, Final residual = 0.0013172, No Iterations 6
ExecutionTime = 0.087449 s  ClockTime = 0 s

Time = 28s

smoothSolver:  Solving for Ux, Initial residual = 0.00831028, Final residual = 0.000667572, No Iterations 5
smoothSolver:  Solving for Uy, Initial residual = 0.0659565, Final residual = 0.00452765, No Iterations 5
Pressure gradient source: uncorrected Ubar = 1.00238, pressure gradient = 1.89318
GAMG:  Solving for p, Initial residual = 0.0102163, Final residual = 0.000898545, No Iterations 17
time step continuity errors : sum local = 0.00279841, global = 2.20911e-18, cumulative = -3.68992e-16
Pressure gradient source: uncorrected Ubar = 1.00023, pressure gradient = 2.49363
smoothSolver:  Solving for omega, Initial residual = 0.00225666, Final residual = 0.000218385, No Iterations 5
smoothSolver:  Solving for k, Initial residual = 0.0167243, Final residual = 0.00123377, No Iterations 6
ExecutionTime = 0.090638 s  ClockTime = 0 s

Time = 29s

smoothSolver:  Solving for Ux, Initial residual = 0.00808747, Final residual = 0.000650152, No Iterations 5
smoothSolver:  Solving for Uy, Initial residual = 0.0580278, Final residual = 0.00438528, No Iterations 5
Pressure gradient source: uncorrected Ubar = 1.00177, pressure gradient = 1.97789
GAMG:  Solving for p, Initial residual = 0.00793774, Final residual = 0.000793003, No Iterations 13
time step continuity errors : sum local = 0.00259315, global = 3.6131e-17, cumulative = -3.32861e-16
Pressure gradient source: uncorrected Ubar = 1.00015, pressure gradient = 2.45072
smoothSolver:  Solving for omega, Initial residual = 0.00209916, Final residual = 0.000205067, No Iterations 5
smoothSolver:  Solving for k, Initial residual = 0.0153931, Final residual = 0.00114436, No Iterations 6
ExecutionTime = 0.093684 s  ClockTime = 0 s

Time = 30s

smoothSolver:  Solving for Ux, Initial residual = 0.00785318, Final residual = 0.000627556, No Iterations 5
smoothSolver:  Solving for Uy, Initial residual = 0.047703, Final residual = 0.00396021, No Iterations 5
Pressure gradient source: uncorrected Ubar = 1.0011, pressure gradient = 2.1152
GAMG:  Solving for p, Initial residual = 0.00637224, Final residual = 0.000617592, No Iterations 11
time step continuity errors : sum local = 0.00199824, global = 2.97885e-17, cumulative = -3.03073e-16
Pressure gradient source: uncorrected Ubar = 1.00006, pressure gradient = 2.43202
smoothSolver:  Solving for omega, Initial residual = 0.00199292, Final residual = 0.000129493, No Iterations 6
smoothSolver:  Solving for k, Initial residual = 0.0137976, Final residual = 0.0010273, No Iterations 6
ExecutionTime = 0.096681 s  ClockTime = 0 s

Time = 31s

smoothSolver:  Solving for Ux, Initial residual = 0.00756991, Final residual = 0.000604445, No Iterations 5
smoothSolver:  Solving for Uy, Initial residual = 0.0410343, Final residual = 0.00361572, No Iterations 5
Pressure gradient source: uncorrected Ubar = 1.00088, pressure gradient = 2.15342
GAMG:  Solving for p, Initial residual = 0.00507659, Final residual = 0.000446495, No Iterations 9
time step continuity errors : sum local = 0.00140252, global = 8.29417e-18, cumulative = -2.94778e-16
Pressure gradient source: uncorrected Ubar = 1.00003, pressure gradient = 2.42254
smoothSolver:  Solving for omega, Initial residual = 0.00186768, Final residual = 0.000123145, No Iterations 6
smoothSolver:  Solving for k, Initial residual = 0.0124052, Final residual = 0.000929739, No Iterations 6
ExecutionTime = 0.099567 s  ClockTime = 0 s

Time = 32s

smoothSolver:  Solving for Ux, Initial residual = 0.00729079, Final residual = 0.00058193, No Iterations 5
smoothSolver:  Solving for Uy, Initial residual = 0.0377875, Final residual = 0.00341464, No Iterations 5
Pressure gradient source: uncorrected Ubar = 1.0007, pressure gradient = 2.18995
GAMG:  Solving for p, Initial residual = 0.00427642, Final residual = 0.000379595, No Iterations 6
time step continuity errors : sum local = 0.00120078, global = 5.20146e-17, cumulative = -2.42764e-16
Pressure gradient source: uncorrected Ubar = 1.00001, pressure gradient = 2.41957
smoothSolver:  Solving for omega, Initial residual = 0.00179088, Final residual = 0.000123386, No Iterations 6
smoothSolver:  Solving for k, Initial residual = 0.0111425, Final residual = 0.000843182, No Iterations 6
ExecutionTime = 0.102404 s  ClockTime = 0 s

Time = 33s

smoothSolver:  Solving for Ux, Initial residual = 0.00701622, Final residual = 0.000560977, No Iterations 5
smoothSolver:  Solving for Uy, Initial residual = 0.0353202, Final residual = 0.00330816, No Iterations 5
Pressure gradient source: uncorrected Ubar = 1.00052, pressure gradient = 2.23833
GAMG:  Solving for p, Initial residual = 0.00365534, Final residual = 0.000338565, No Iterations 5
time step continuity errors : sum local = 0.000930569, global = -3.66731e-17, cumulative = -2.79437e-16
Pressure gradient source: uncorrected Ubar = 0.999986, pressure gradient = 2.42447
smoothSolver:  Solving for omega, Initial residual = 0.00170736, Final residual = 0.000114175, No Iterations 6
smoothSolver:  Solving for k, Initial residual = 0.0100866, Final residual = 0.000765964, No Iterations 6
ExecutionTime = 0.105094 s  ClockTime = 0 s

Time = 34s

smoothSolver:  Solving for Ux, Initial residual = 0.00677221, Final residual = 0.000542755, No Iterations 5
smoothSolver:  Solving for Uy, Initial residual = 0.033664, Final residual = 0.00327723, No Iterations 5
Pressure gradient source: uncorrected Ubar = 1.00054, pressure gradient = 2.22923
GAMG:  Solving for p, Initial residual = 0.00343336, Final residual = 0.000317099, No Iterations 4
time step continuity errors : sum local = 0.000780048, global = 2.72407e-17, cumulative = -2.52196e-16
Pressure gradient source: uncorrected Ubar = 0.99999, pressure gradient = 2.42807
smoothSolver:  Solving for omega, Initial residual = 0.00165153, Final residual = 0.000115226, No Iterations 6
smoothSolver:  Solving for k, Initial residual = 0.00923706, Final residual = 0.000695728, No Iterations 6
ExecutionTime = 0.107683 s  ClockTime = 0 s

Time = 35s

smoothSolver:  Solving for Ux, Initial residual = 0.00655715, Final residual = 0.000526995, No Iterations 5
smoothSolver:  Solving for Uy, Initial residual = 0.0328863, Final residual = 0.00215242, No Iterations 6
Pressure gradient source: uncorrected Ubar = 1.00043, pressure gradient = 2.26609
GAMG:  Solving for p, Initial residual = 0.00301935, Final residual = 0.000290027, No Iterations 4
time step continuity errors : sum local = 0.000638131, global = -2.19823e-17, cumulative = -2.74178e-16
Pressure gradient source: uncorrected Ubar = 0.999975, pressure gradient = 2.43728
smoothSolver:  Solving for omega, Initial residual = 0.00156628, Final residual = 0.000109413, No Iterations 6
smoothSolver:  Solving for k, Initial residual = 0.00864022, Final residual = 0.000628883, No Iterations 6
ExecutionTime = 0.110272 s  ClockTime = 0 s

Time = 36s

smoothSolver:  Solving for Ux, Initial residual = 0.00636151, Final residual = 0.000512808, No Iterations 5
smoothSolver:  Solving for Uy, Initial residual = 0.0317199, Final residual = 0.00213331, No Iterations 6
Pressure gradient source: uncorrected Ubar = 1.00046, pressure gradient = 2.25601
GAMG:  Solving for p, Initial residual = 0.00265391, Final residual = 0.000212904, No Iterations 6
time step continuity errors : sum local = 0.000447355, global = 7.74662e-17, cumulative = -1.96712e-16
Pressure gradient source: uncorrected Ubar = 0.999981, pressure gradient = 2.44482
smoothSolver:  Solving for omega, Initial residual = 0.00151398, Final residual = 0.000106675, No Iterations 6
smoothSolver:  Solving for k, Initial residual = 0.00819018, Final residual = 0.00058833, No Iterations 6
ExecutionTime = 0.112983 s  ClockTime = 0 s

Time = 37s

smoothSolver:  Solving for Ux, Initial residual = 0.00618007, Final residual = 0.000499787, No Iterations 5
smoothSolver:  Solving for Uy, Initial residual = 0.031032, Final residual = 0.00212084, No Iterations 6
Pressure gradient source: uncorrected Ubar = 1.00052, pressure gradient = 2.23262
GAMG:  Solving for p, Initial residual = 0.00245007, Final residual = 0.000196513, No Iterations 6
time step continuity errors : sum local = 0.000380041, global = 4.67833e-17, cumulative = -1.49929e-16
Pressure gradient source: uncorrected Ubar = 0.999989, pressure gradient = 2.44947
smoothSolver:  Solving for omega, Initial residual = 0.00146184, Final residual = 0.000101615, No Iterations 6
smoothSolver:  Solving for k, Initial residual = 0.0078967, Final residual = 0.000569126, No Iterations 6
ExecutionTime = 0.11565 s  ClockTime = 0 s

Time = 38s

smoothSolver:  Solving for Ux, Initial residual = 0.00601629, Final residual = 0.000488115, No Iterations 5
smoothSolver:  Solving for Uy, Initial residual = 0.0304413, Final residual = 0.00212803, No Iterations 6
Pressure gradient source: uncorrected Ubar = 1.00054, pressure gradient = 2.22326
GAMG:  Solving for p, Initial residual = 0.0021726, Final residual = 0.000199659, No Iterations 8
time step continuity errors : sum local = 0.000361242, global = -3.80962e-17, cumulative = -1.88025e-16
Pressure gradient source: uncorrected Ubar = 0.999992, pressure gradient = 2.45266
smoothSolver:  Solving for omega, Initial residual = 0.00141583, Final residual = 0.000100775, No Iterations 6
smoothSolver:  Solving for k, Initial residual = 0.0076864, Final residual = 0.000557974, No Iterations 6
ExecutionTime = 0.118459 s  ClockTime = 0 s

Time = 39s

smoothSolver:  Solving for Ux, Initial residual = 0.00586469, Final residual = 0.000477713, No Iterations 5
smoothSolver:  Solving for Uy, Initial residual = 0.0307098, Final residual = 0.00215059, No Iterations 6
Pressure gradient source: uncorrected Ubar = 1.00042, pressure gradient = 2.27186
GAMG:  Solving for p, Initial residual = 0.00181964, Final residual = 0.000163416, No Iterations 12
time step continuity errors : sum local = 0.000283885, global = 3.64834e-17, cumulative = -1.51542e-16
Pressure gradient source: uncorrected Ubar = 0.999977, pressure gradient = 2.46262
smoothSolver:  Solving for omega, Initial residual = 0.00136399, Final residual = 9.47557e-05, No Iterations 6
smoothSolver:  Solving for k, Initial residual = 0.00752008, Final residual = 0.000550688, No Iterations 6
ExecutionTime = 0.121435 s  ClockTime = 0 s

Time = 40s

smoothSolver:  Solving for Ux, Initial residual = 0.00572651, Final residual = 0.000468683, No Iterations 5
smoothSolver:  Solving for Uy, Initial residual = 0.0308789, Final residual = 0.00219697, No Iterations 6
Pressure gradient source: uncorrected Ubar = 1.0005, pressure gradient = 2.23867
GAMG:  Solving for p, Initial residual = 0.00164012, Final residual = 0.000145594, No Iterations 13
time step continuity errors : sum local = 0.000243165, global = 3.57922e-17, cumulative = -1.15749e-16
Pressure gradient source: uncorrected Ubar = 0.99999, pressure gradient = 2.46727
smoothSolver:  Solving for omega, Initial residual = 0.00132334, Final residual = 9.4879e-05, No Iterations 6
smoothSolver:  Solving for k, Initial residual = 0.00742104, Final residual = 0.000552473, No Iterations 6
ExecutionTime = 0.124582 s  ClockTime = 0 s

Time = 41s

smoothSolver:  Solving for Ux, Initial residual = 0.00559545, Final residual = 0.000460036, No Iterations 5
smoothSolver:  Solving for Uy, Initial residual = 0.0305625, Final residual = 0.00216424, No Iterations 6
Pressure gradient source: uncorrected Ubar = 1.00042, pressure gradient = 2.27282
GAMG:  Solving for p, Initial residual = 0.00156154, Final residual = 0.000154293, No Iterations 13
time step continuity errors : sum local = 0.000249352, global = -3.47487e-17, cumulative = -1.50498e-16
Pressure gradient source: uncorrected Ubar = 0.99998, pressure gradient = 2.47633
smoothSolver:  Solving for omega, Initial residual = 0.00127223, Final residual = 9.06135e-05, No Iterations 6
smoothSolver:  Solving for k, Initial residual = 0.00730557, Final residual = 0.000544713, No Iterations 6
ExecutionTime = 0.1277 s  ClockTime = 0 s

Time = 42s

smoothSolver:  Solving for Ux, Initial residual = 0.0054729, Final residual = 0.000451688, No Iterations 5
smoothSolver:  Solving for Uy, Initial residual = 0.0296235, Final residual = 0.00213765, No Iterations 6
Pressure gradient source: uncorrected Ubar = 1.00038, pressure gradient = 2.29365
GAMG:  Solving for p, Initial residual = 0.00131092, Final residual = 0.000114695, No Iterations 17
time step continuity errors : sum local = 0.00018357, global = -2.15485e-18, cumulative = -1.52653e-16
Pressure gradient source: uncorrected Ubar = 0.999978, pressure gradient = 2.48706
smoothSolver:  Solving for omega, Initial residual = 0.00122674, Final residual = 8.9498e-05, No Iterations 6
smoothSolver:  Solving for k, Initial residual = 0.00721923, Final residual = 0.000541656, No Iterations 6
ExecutionTime = 0.130957 s  ClockTime = 0 s

Time = 43s

smoothSolver:  Solving for Ux, Initial residual = 0.00536048, Final residual = 0.000444612, No Iterations 5
smoothSolver:  Solving for Uy, Initial residual = 0.0293478, Final residual = 0.00213901, No Iterations 6
Pressure gradient source: uncorrected Ubar = 1.00034, pressure gradient = 2.3184
GAMG:  Solving for p, Initial residual = 0.00125038, Final residual = 0.000113823, No Iterations 15
time step continuity errors : sum local = 0.000180797, global = 1.08556e-17, cumulative = -1.41797e-16
Pressure gradient source: uncorrected Ubar = 0.999973, pressure gradient = 2.50023
smoothSolver:  Solving for omega, Initial residual = 0.00118404, Final residual = 8.61728e-05, No Iterations 6
smoothSolver:  Solving for k, Initial residual = 0.00717077, Final residual = 0.000544757, No Iterations 6
ExecutionTime = 0.134126 s  ClockTime = 0 s

Time = 44s

smoothSolver:  Solving for Ux, Initial residual = 0.00524867, Final residual = 0.00043744, No Iterations 5
smoothSolver:  Solving for Uy, Initial residual = 0.0286457, Final residual = 0.00209065, No Iterations 6
Pressure gradient source: uncorrected Ubar = 1.00018, pressure gradient = 2.40885
GAMG:  Solving for p, Initial residual = 0.00115626, Final residual = 0.00011182, No Iterations 15
time step continuity errors : sum local = 0.000175302, global = -2.41099e-17, cumulative = -1.65907e-16
Pressure gradient source: uncorrected Ubar = 0.999952, pressure gradient = 2.52457
smoothSolver:  Solving for omega, Initial residual = 0.00114216, Final residual = 8.39867e-05, No Iterations 6
smoothSolver:  Solving for k, Initial residual = 0.00709006, Final residual = 0.000541004, No Iterations 6
ExecutionTime = 0.137283 s  ClockTime = 0 s

Time = 45s

smoothSolver:  Solving for Ux, Initial residual = 0.00514238, Final residual = 0.000430504, No Iterations 5
smoothSolver:  Solving for Uy, Initial residual = 0.0278103, Final residual = 0.00205177, No Iterations 6
Pressure gradient source: uncorrected Ubar = 1.00011, pressure gradient = 2.46889
GAMG:  Solving for p, Initial residual = 0.00107533, Final residual = 9.28189e-05, No Iterations 17
time step continuity errors : sum local = 0.00014513, global = -3.84418e-17, cumulative = -2.04349e-16
Pressure gradient source: uncorrected Ubar = 0.999943, pressure gradient = 2.55467
smoothSolver:  Solving for omega, Initial residual = 0.0011051, Final residual = 8.29712e-05, No Iterations 6
smoothSolver:  Solving for k, Initial residual = 0.00701937, Final residual = 0.000534703, No Iterations 6
ExecutionTime = 0.140509 s  ClockTime = 0 s

Time = 46s

smoothSolver:  Solving for Ux, Initial residual = 0.00504404, Final residual = 0.000423558, No Iterations 5
smoothSolver:  Solving for Uy, Initial residual = 0.0271887, Final residual = 0.00201009, No Iterations 6
Pressure gradient source: uncorrected Ubar = 1.00005, pressure gradient = 2.52638
GAMG:  Solving for p, Initial residual = 0.00109762, Final residual = 0.000108728, No Iterations 13
time step continuity errors : sum local = 0.000168186, global = 9.08019e-18, cumulative = -1.95269e-16
Pressure gradient source: uncorrected Ubar = 0.999937, pressure gradient = 2.58932
smoothSolver:  Solving for omega, Initial residual = 0.00106401, Final residual = 7.80978e-05, No Iterations 6
smoothSolver:  Solving for k, Initial residual = 0.00695567, Final residual = 0.000533043, No Iterations 6
ExecutionTime = 0.14353 s  ClockTime = 0 s

Time = 47s

smoothSolver:  Solving for Ux, Initial residual = 0.00494864, Final residual = 0.000417192, No Iterations 5
smoothSolver:  Solving for Uy, Initial residual = 0.0270776, Final residual = 0.00201316, No Iterations 6
Pressure gradient source: uncorrected Ubar = 0.999938, pressure gradient = 2.62474
GAMG:  Solving for p, Initial residual = 0.000933799, Final residual = 8.28974e-05, No Iterations 15
time step continuity errors : sum local = 0.000128606, global = 4.03798e-17, cumulative = -1.54889e-16
Pressure gradient source: uncorrected Ubar = 0.999921, pressure gradient = 2.6339
smoothSolver:  Solving for omega, Initial residual = 0.00102802, Final residual = 7.60399e-05, No Iterations 6
smoothSolver:  Solving for k, Initial residual = 0.00693326, Final residual = 0.000535957, No Iterations 6
ExecutionTime = 0.146682 s  ClockTime = 0 s

Time = 48s

smoothSolver:  Solving for Ux, Initial residual = 0.00485472, Final residual = 0.000410961, No Iterations 5
smoothSolver:  Solving for Uy, Initial residual = 0.026088, Final residual = 0.00194969, No Iterations 6
Pressure gradient source: uncorrected Ubar = 0.999796, pressure gradient = 2.75467
GAMG:  Solving for p, Initial residual = 0.000893394, Final residual = 8.04983e-05, No Iterations 14
time step continuity errors : sum local = 0.000126632, global = 2.76878e-17, cumulative = -1.27201e-16
Pressure gradient source: uncorrected Ubar = 0.999902, pressure gradient = 2.69167
smoothSolver:  Solving for omega, Initial residual = 0.000998635, Final residual = 7.36137e-05, No Iterations 6
smoothSolver:  Solving for k, Initial residual = 0.00685248, Final residual = 0.000525282, No Iterations 6
ExecutionTime = 0.149773 s  ClockTime = 0 s

Time = 49s

smoothSolver:  Solving for Ux, Initial residual = 0.00476513, Final residual = 0.000404886, No Iterations 5
smoothSolver:  Solving for Uy, Initial residual = 0.0251258, Final residual = 0.00188678, No Iterations 6
Pressure gradient source: uncorrected Ubar = 0.999858, pressure gradient = 2.77951
GAMG:  Solving for p, Initial residual = 0.000780846, Final residual = 7.26356e-05, No Iterations 14
time step continuity errors : sum local = 0.000112853, global = 3.59413e-17, cumulative = -9.126e-17
Pressure gradient source: uncorrected Ubar = 0.999911, pressure gradient = 2.74638
smoothSolver:  Solving for omega, Initial residual = 0.000962748, Final residual = 7.1501e-05, No Iterations 6
smoothSolver:  Solving for k, Initial residual = 0.00679966, Final residual = 0.000527099, No Iterations 6
ExecutionTime = 0.152835 s  ClockTime = 0 s

Time = 50s

smoothSolver:  Solving for Ux, Initial residual = 0.0046788, Final residual = 0.0003986, No Iterations 5
smoothSolver:  Solving for Uy, Initial residual = 0.0241967, Final residual = 0.00181911, No Iterations 6
Pressure gradient source: uncorrected Ubar = 0.999828, pressure gradient = 2.85722
GAMG:  Solving for p, Initial residual = 0.000709091, Final residual = 6.74698e-05, No Iterations 12
time step continuity errors : sum local = 0.000104255, global = 6.15962e-18, cumulative = -8.51004e-17
Pressure gradient source: uncorrected Ubar = 0.999907, pressure gradient = 2.80598
smoothSolver:  Solving for omega, Initial residual = 0.000932541, Final residual = 6.95492e-05, No Iterations 6
smoothSolver:  Solving for k, Initial residual = 0.00676648, Final residual = 0.000523559, No Iterations 6
ExecutionTime = 0.155799 s  ClockTime = 0 s

Time = 51s

smoothSolver:  Solving for Ux, Initial residual = 0.00459477, Final residual = 0.000392789, No Iterations 5
smoothSolver:  Solving for Uy, Initial residual = 0.0235048, Final residual = 0.00177518, No Iterations 6
Pressure gradient source: uncorrected Ubar = 0.999776, pressure gradient = 2.95718
GAMG:  Solving for p, Initial residual = 0.000670758, Final residual = 4.44742e-05, No Iterations 7
time step continuity errors : sum local = 5.9291e-05, global = 2.31104e-17, cumulative = -6.199e-17
Pressure gradient source: uncorrected Ubar = 0.9999, pressure gradient = 2.87319
smoothSolver:  Solving for omega, Initial residual = 0.000898407, Final residual = 6.79804e-05, No Iterations 6
smoothSolver:  Solving for k, Initial residual = 0.00671318, Final residual = 0.000523903, No Iterations 6
ExecutionTime = 0.158552 s  ClockTime = 0 s

Time = 52s

smoothSolver:  Solving for Ux, Initial residual = 0.00451365, Final residual = 0.000387223, No Iterations 5
smoothSolver:  Solving for Uy, Initial residual = 0.0223991, Final residual = 0.00170015, No Iterations 6
Pressure gradient source: uncorrected Ubar = 0.999915, pressure gradient = 2.93277
GAMG:  Solving for p, Initial residual = 0.000633473, Final residual = 3.85068e-05, No Iterations 7
time step continuity errors : sum local = 5.02735e-05, global = -1.84043e-17, cumulative = -8.03943e-17
Pressure gradient source: uncorrected Ubar = 0.99992, pressure gradient = 2.92932
smoothSolver:  Solving for omega, Initial residual = 0.000868029, Final residual = 6.57108e-05, No Iterations 6
smoothSolver:  Solving for k, Initial residual = 0.00666047, Final residual = 0.00051604, No Iterations 6
ExecutionTime = 0.161285 s  ClockTime = 0 s

Time = 53s

smoothSolver:  Solving for Ux, Initial residual = 0.00443763, Final residual = 0.000381859, No Iterations 5
smoothSolver:  Solving for Uy, Initial residual = 0.0215942, Final residual = 0.00165811, No Iterations 6
Pressure gradient source: uncorrected Ubar = 0.999965, pressure gradient = 2.95517
GAMG:  Solving for p, Initial residual = 0.000576231, Final residual = 5.71317e-05, No Iterations 6
time step continuity errors : sum local = 8.40005e-05, global = -5.98209e-17, cumulative = -1.40215e-16
Pressure gradient source: uncorrected Ubar = 0.999928, pressure gradient = 2.98229
smoothSolver:  Solving for omega, Initial residual = 0.000834315, Final residual = 6.30009e-05, No Iterations 6
smoothSolver:  Solving for k, Initial residual = 0.00663119, Final residual = 0.000520644, No Iterations 6
ExecutionTime = 0.163962 s  ClockTime = 0 s

Time = 54s

smoothSolver:  Solving for Ux, Initial residual = 0.00436838, Final residual = 0.000376755, No Iterations 5
smoothSolver:  Solving for Uy, Initial residual = 0.021509, Final residual = 0.00165328, No Iterations 6
Pressure gradient source: uncorrected Ubar = 1.00004, pressure gradient = 2.95219
GAMG:  Solving for p, Initial residual = 0.000478535, Final residual = 4.23709e-05, No Iterations 10
time step continuity errors : sum local = 6.24857e-05, global = -4.71629e-18, cumulative = -1.44931e-16
Pressure gradient source: uncorrected Ubar = 0.999939, pressure gradient = 3.02876
smoothSolver:  Solving for omega, Initial residual = 0.000805126, Final residual = 6.13335e-05, No Iterations 6
smoothSolver:  Solving for k, Initial residual = 0.00661737, Final residual = 0.000520934, No Iterations 6
ExecutionTime = 0.166915 s  ClockTime = 0 s

Time = 55s

smoothSolver:  Solving for Ux, Initial residual = 0.00430151, Final residual = 0.000372288, No Iterations 5
smoothSolver:  Solving for Uy, Initial residual = 0.0211564, Final residual = 0.00163534, No Iterations 6
Pressure gradient source: uncorrected Ubar = 1.00008, pressure gradient = 2.96475
GAMG:  Solving for p, Initial residual = 0.000437107, Final residual = 4.20072e-05, No Iterations 8
time step continuity errors : sum local = 5.95171e-05, global = -3.72288e-17, cumulative = -1.8216e-16
Pressure gradient source: uncorrected Ubar = 0.999946, pressure gradient = 3.07187
smoothSolver:  Solving for omega, Initial residual = 0.000779836, Final residual = 5.87086e-05, No Iterations 6
smoothSolver:  Solving for k, Initial residual = 0.0065845, Final residual = 0.000520786, No Iterations 6
ExecutionTime = 0.169693 s  ClockTime = 0 s

Time = 56s

smoothSolver:  Solving for Ux, Initial residual = 0.00423903, Final residual = 0.000368211, No Iterations 5
smoothSolver:  Solving for Uy, Initial residual = 0.0205433, Final residual = 0.00159594, No Iterations 6
Pressure gradient source: uncorrected Ubar = 1.00015, pressure gradient = 2.94992
GAMG:  Solving for p, Initial residual = 0.000425723, Final residual = 3.61445e-05, No Iterations 8
time step continuity errors : sum local = 4.92373e-05, global = -5.39391e-18, cumulative = -1.87554e-16
Pressure gradient source: uncorrected Ubar = 0.999957, pressure gradient = 3.10797
smoothSolver:  Solving for omega, Initial residual = 0.000755782, Final residual = 5.68838e-05, No Iterations 6
smoothSolver:  Solving for k, Initial residual = 0.0065544, Final residual = 0.000520221, No Iterations 6
ExecutionTime = 0.172495 s  ClockTime = 0 s

Time = 57s

smoothSolver:  Solving for Ux, Initial residual = 0.00418123, Final residual = 0.000364432, No Iterations 5
smoothSolver:  Solving for Uy, Initial residual = 0.0199906, Final residual = 0.00155595, No Iterations 6
Pressure gradient source: uncorrected Ubar = 1.00019, pressure gradient = 2.94155
GAMG:  Solving for p, Initial residual = 0.000408202, Final residual = 3.21243e-05, No Iterations 8
time step continuity errors : sum local = 4.15372e-05, global = 1.20101e-17, cumulative = -1.75544e-16
Pressure gradient source: uncorrected Ubar = 0.999964, pressure gradient = 3.13884
smoothSolver:  Solving for omega, Initial residual = 0.000733914, Final residual = 5.52147e-05, No Iterations 6
smoothSolver:  Solving for k, Initial residual = 0.00652215, Final residual = 0.000521744, No Iterations 6
ExecutionTime = 0.175264 s  ClockTime = 0 s

Time = 58s

smoothSolver:  Solving for Ux, Initial residual = 0.0041283, Final residual = 0.000360827, No Iterations 5
smoothSolver:  Solving for Uy, Initial residual = 0.0194049, Final residual = 0.00150592, No Iterations 6
Pressure gradient source: uncorrected Ubar = 1.00024, pressure gradient = 2.92576
GAMG:  Solving for p, Initial residual = 0.000400168, Final residual = 3.87969e-05, No Iterations 6
time step continuity errors : sum local = 4.53291e-05, global = 6.00191e-17, cumulative = -1.15525e-16
Pressure gradient source: uncorrected Ubar = 0.999972, pressure gradient = 3.16393
smoothSolver:  Solving for omega, Initial residual = 0.000712531, Final residual = 5.39316e-05, No Iterations 6
smoothSolver:  Solving for k, Initial residual = 0.00647943, Final residual = 0.000514988, No Iterations 6
ExecutionTime = 0.177976 s  ClockTime = 0 s

Time = 59s

smoothSolver:  Solving for Ux, Initial residual = 0.00407862, Final residual = 0.000357539, No Iterations 5
smoothSolver:  Solving for Uy, Initial residual = 0.0189535, Final residual = 0.00146401, No Iterations 6
Pressure gradient source: uncorrected Ubar = 1.00028, pressure gradient = 2.90997
GAMG:  Solving for p, Initial residual = 0.000361988, Final residual = 3.34275e-05, No Iterations 6
time step continuity errors : sum local = 3.60265e-05, global = 1.06777e-17, cumulative = -1.04847e-16
Pressure gradient source: uncorrected Ubar = 0.999978, pressure gradient = 3.18404
smoothSolver:  Solving for omega, Initial residual = 0.00069142, Final residual = 5.20815e-05, No Iterations 6
smoothSolver:  Solving for k, Initial residual = 0.00645398, Final residual = 0.00051761, No Iterations 6
ExecutionTime = 0.180677 s  ClockTime = 0 s

Time = 60s

smoothSolver:  Solving for Ux, Initial residual = 0.00403076, Final residual = 0.000354575, No Iterations 5
smoothSolver:  Solving for Uy, Initial residual = 0.0188564, Final residual = 0.00143393, No Iterations 6
Pressure gradient source: uncorrected Ubar = 1.00031, pressure gradient = 2.89248
GAMG:  Solving for p, Initial residual = 0.00034446, Final residual = 2.92308e-05, No Iterations 6
time step continuity errors : sum local = 2.65705e-05, global = 1.81502e-17, cumulative = -8.66971e-17
Pressure gradient source: uncorrected Ubar = 0.999984, pressure gradient = 3.19945
smoothSolver:  Solving for omega, Initial residual = 0.00067397, Final residual = 5.06105e-05, No Iterations 6
smoothSolver:  Solving for k, Initial residual = 0.00643532, Final residual = 0.000516034, No Iterations 6
ExecutionTime = 0.183347 s  ClockTime = 0 s

Time = 61s

smoothSolver:  Solving for Ux, Initial residual = 0.0039842, Final residual = 0.000351681, No Iterations 5
smoothSolver:  Solving for Uy, Initial residual = 0.0186355, Final residual = 0.00140049, No Iterations 6
Pressure gradient source: uncorrected Ubar = 1.00033, pressure gradient = 2.87167
GAMG:  Solving for p, Initial residual = 0.0003304, Final residual = 3.03159e-05, No Iterations 6
time step continuity errors : sum local = 2.27229e-05, global = -3.94039e-17, cumulative = -1.26101e-16
Pressure gradient source: uncorrected Ubar = 0.999989, pressure gradient = 3.21031
smoothSolver:  Solving for omega, Initial residual = 0.000655974, Final residual = 4.89277e-05, No Iterations 6
smoothSolver:  Solving for k, Initial residual = 0.0064044, Final residual = 0.000516403, No Iterations 6
ExecutionTime = 0.186064 s  ClockTime = 0 s

Time = 62s

smoothSolver:  Solving for Ux, Initial residual = 0.00393962, Final residual = 0.000348875, No Iterations 5
smoothSolver:  Solving for Uy, Initial residual = 0.0183879, Final residual = 0.00136431, No Iterations 6
Pressure gradient source: uncorrected Ubar = 1.00036, pressure gradient = 2.85002
GAMG:  Solving for p, Initial residual = 0.000320133, Final residual = 2.95631e-05, No Iterations 6
time step continuity errors : sum local = 2.52837e-05, global = 2.1748e-17, cumulative = -1.04353e-16
Pressure gradient source: uncorrected Ubar = 0.999993, pressure gradient = 3.21703
smoothSolver:  Solving for omega, Initial residual = 0.000640195, Final residual = 4.77669e-05, No Iterations 6
smoothSolver:  Solving for k, Initial residual = 0.00637317, Final residual = 0.000512454, No Iterations 6
ExecutionTime = 0.188745 s  ClockTime = 0 s

Time = 63s

smoothSolver:  Solving for Ux, Initial residual = 0.00389741, Final residual = 0.00034611, No Iterations 5
smoothSolver:  Solving for Uy, Initial residual = 0.0182104, Final residual = 0.00134594, No Iterations 6
Pressure gradient source: uncorrected Ubar = 1.00037, pressure gradient = 2.8307
GAMG:  Solving for p, Initial residual = 0.000302559, Final residual = 3.02547e-05, No Iterations 6
time step continuity errors : sum local = 2.7354e-05, global = -2.13893e-17, cumulative = -1.25742e-16
Pressure gradient source: uncorrected Ubar = 0.999997, pressure gradient = 3.22047
smoothSolver:  Solving for omega, Initial residual = 0.000624545, Final residual = 4.69414e-05, No Iterations 6
smoothSolver:  Solving for k, Initial residual = 0.00633874, Final residual = 0.000512437, No Iterations 6
ExecutionTime = 0.191433 s  ClockTime = 0 s

Time = 64s

smoothSolver:  Solving for Ux, Initial residual = 0.00385622, Final residual = 0.000343691, No Iterations 5
smoothSolver:  Solving for Uy, Initial residual = 0.0180278, Final residual = 0.00132757, No Iterations 6
Pressure gradient source: uncorrected Ubar = 1.00039, pressure gradient = 2.80958
GAMG:  Solving for p, Initial residual = 0.000307764, Final residual = 2.59878e-05, No Iterations 7
time step continuity errors : sum local = 2.62812e-05, global = -2.39744e-17, cumulative = -1.49717e-16
Pressure gradient source: uncorrected Ubar = 1, pressure gradient = 3.22072
smoothSolver:  Solving for omega, Initial residual = 0.00061122, Final residual = 4.62285e-05, No Iterations 6
smoothSolver:  Solving for k, Initial residual = 0.00629216, Final residual = 0.000507192, No Iterations 6
ExecutionTime = 0.19416 s  ClockTime = 0 s

Time = 65s

smoothSolver:  Solving for Ux, Initial residual = 0.00381655, Final residual = 0.000341286, No Iterations 5
smoothSolver:  Solving for Uy, Initial residual = 0.0178582, Final residual = 0.00131184, No Iterations 6
Pressure gradient source: uncorrected Ubar = 1.00039, pressure gradient = 2.78967
GAMG:  Solving for p, Initial residual = 0.000309432, Final residual = 2.71776e-05, No Iterations 10
time step continuity errors : sum local = 2.66878e-05, global = -1.4735e-17, cumulative = -1.64452e-16
Pressure gradient source: uncorrected Ubar = 1, pressure gradient = 3.21837
smoothSolver:  Solving for omega, Initial residual = 0.000598989, Final residual = 4.49768e-05, No Iterations 6
smoothSolver:  Solving for k, Initial residual = 0.00628248, Final residual = 0.000510912, No Iterations 6
ExecutionTime = 0.197182 s  ClockTime = 0 s

Time = 66s

smoothSolver:  Solving for Ux, Initial residual = 0.00377781, Final residual = 0.000338912, No Iterations 5
smoothSolver:  Solving for Uy, Initial residual = 0.0173297, Final residual = 0.00126629, No Iterations 6
Pressure gradient source: uncorrected Ubar = 1.00041, pressure gradient = 2.76214
GAMG:  Solving for p, Initial residual = 0.00029231, Final residual = 2.32502e-05, No Iterations 8
time step continuity errors : sum local = 2.33957e-05, global = 1.09233e-17, cumulative = -1.53528e-16
Pressure gradient source: uncorrected Ubar = 1.00001, pressure gradient = 3.21257
smoothSolver:  Solving for omega, Initial residual = 0.000585251, Final residual = 4.37961e-05, No Iterations 6
smoothSolver:  Solving for k, Initial residual = 0.00625013, Final residual = 0.000507928, No Iterations 6
ExecutionTime = 0.200116 s  ClockTime = 0 s

Time = 67s

smoothSolver:  Solving for Ux, Initial residual = 0.00374113, Final residual = 0.000336621, No Iterations 5
smoothSolver:  Solving for Uy, Initial residual = 0.0170727, Final residual = 0.0012486, No Iterations 6
Pressure gradient source: uncorrected Ubar = 1.00041, pressure gradient = 2.7414
GAMG:  Solving for p, Initial residual = 0.00027987, Final residual = 2.64076e-05, No Iterations 10
time step continuity errors : sum local = 2.55284e-05, global = -2.39812e-17, cumulative = -1.7751e-16
Pressure gradient source: uncorrected Ubar = 1.00001, pressure gradient = 3.20478
smoothSolver:  Solving for omega, Initial residual = 0.000573469, Final residual = 4.34467e-05, No Iterations 6
smoothSolver:  Solving for k, Initial residual = 0.00620906, Final residual = 0.000506631, No Iterations 6
ExecutionTime = 0.203025 s  ClockTime = 0 s

Time = 68s

smoothSolver:  Solving for Ux, Initial residual = 0.00370603, Final residual = 0.000334366, No Iterations 5
smoothSolver:  Solving for Uy, Initial residual = 0.016868, Final residual = 0.0012356, No Iterations 6
Pressure gradient source: uncorrected Ubar = 1.00042, pressure gradient = 2.71712
GAMG:  Solving for p, Initial residual = 0.000267112, Final residual = 2.4196e-05, No Iterations 12
time step continuity errors : sum local = 2.31836e-05, global = 3.44438e-17, cumulative = -1.43066e-16
Pressure gradient source: uncorrected Ubar = 1.00001, pressure gradient = 3.1947
smoothSolver:  Solving for omega, Initial residual = 0.000562343, Final residual = 4.29816e-05, No Iterations 6
smoothSolver:  Solving for k, Initial residual = 0.00618486, Final residual = 0.000503312, No Iterations 6
ExecutionTime = 0.206016 s  ClockTime = 0 s

Time = 69s

smoothSolver:  Solving for Ux, Initial residual = 0.00367113, Final residual = 0.000332342, No Iterations 5
smoothSolver:  Solving for Uy, Initial residual = 0.0167244, Final residual = 0.00121839, No Iterations 6
Pressure gradient source: uncorrected Ubar = 1.00042, pressure gradient = 2.69728
GAMG:  Solving for p, Initial residual = 0.000264073, Final residual = 2.56861e-05, No Iterations 12
time step continuity errors : sum local = 2.38081e-05, global = 4.4825e-17, cumulative = -9.82408e-17
Pressure gradient source: uncorrected Ubar = 1.00001, pressure gradient = 3.18328
smoothSolver:  Solving for omega, Initial residual = 0.000550742, Final residual = 4.15702e-05, No Iterations 6
smoothSolver:  Solving for k, Initial residual = 0.00613891, Final residual = 0.000501439, No Iterations 6
ExecutionTime = 0.208992 s  ClockTime = 0 s

Time = 70s

smoothSolver:  Solving for Ux, Initial residual = 0.00363735, Final residual = 0.000330395, No Iterations 5
smoothSolver:  Solving for Uy, Initial residual = 0.0163485, Final residual = 0.00119223, No Iterations 6
Pressure gradient source: uncorrected Ubar = 1.00042, pressure gradient = 2.67304
GAMG:  Solving for p, Initial residual = 0.000255324, Final residual = 2.4127e-05, No Iterations 12
time step continuity errors : sum local = 2.21179e-05, global = 1.28986e-17, cumulative = -8.53422e-17
Pressure gradient source: uncorrected Ubar = 1.00001, pressure gradient = 3.17
smoothSolver:  Solving for omega, Initial residual = 0.000542512, Final residual = 4.15202e-05, No Iterations 6
smoothSolver:  Solving for k, Initial residual = 0.00610789, Final residual = 0.000497422, No Iterations 6
ExecutionTime = 0.211948 s  ClockTime = 0 s

Time = 71s

smoothSolver:  Solving for Ux, Initial residual = 0.00360465, Final residual = 0.00032845, No Iterations 5
smoothSolver:  Solving for Uy, Initial residual = 0.0163775, Final residual = 0.00119832, No Iterations 6
Pressure gradient source: uncorrected Ubar = 1.00042, pressure gradient = 2.6425
GAMG:  Solving for p, Initial residual = 0.000263488, Final residual = 2.49056e-05, No Iterations 12
time step continuity errors : sum local = 2.22662e-05, global = 3.22144e-17, cumulative = -5.31278e-17
Pressure gradient source: uncorrected Ubar = 1.00001, pressure gradient = 3.15412
smoothSolver:  Solving for omega, Initial residual = 0.000532741, Final residual = 4.04897e-05, No Iterations 6
smoothSolver:  Solving for k, Initial residual = 0.00607176, Final residual = 0.000496846, No Iterations 6
ExecutionTime = 0.214946 s  ClockTime = 0 s

Time = 72s

smoothSolver:  Solving for Ux, Initial residual = 0.00357338, Final residual = 0.000326519, No Iterations 5
smoothSolver:  Solving for Uy, Initial residual = 0.0159924, Final residual = 0.00117109, No Iterations 6
Pressure gradient source: uncorrected Ubar = 1.00042, pressure gradient = 2.61977
GAMG:  Solving for p, Initial residual = 0.000255244, Final residual = 2.4055e-05, No Iterations 12
time step continuity errors : sum local = 2.08848e-05, global = 2.01933e-17, cumulative = -3.29345e-17
Pressure gradient source: uncorrected Ubar = 1.00001, pressure gradient = 3.1372
smoothSolver:  Solving for omega, Initial residual = 0.000525069, Final residual = 4.0414e-05, No Iterations 6
smoothSolver:  Solving for k, Initial residual = 0.00604443, Final residual = 0.000492773, No Iterations 6
ExecutionTime = 0.217945 s  ClockTime = 0 s

Time = 73s

smoothSolver:  Solving for Ux, Initial residual = 0.00354394, Final residual = 0.000324694, No Iterations 5
smoothSolver:  Solving for Uy, Initial residual = 0.0157825, Final residual = 0.00115835, No Iterations 6
Pressure gradient source: uncorrected Ubar = 1.00042, pressure gradient = 2.58994
GAMG:  Solving for p, Initial residual = 0.000236988, Final residual = 2.03653e-05, No Iterations 14
time step continuity errors : sum local = 1.72997e-05, global = 2.14706e-17, cumulative = -1.14639e-17
Pressure gradient source: uncorrected Ubar = 1.00001, pressure gradient = 3.11825
smoothSolver:  Solving for omega, Initial residual = 0.000516333, Final residual = 3.98871e-05, No Iterations 6
smoothSolver:  Solving for k, Initial residual = 0.00602243, Final residual = 0.000496051, No Iterations 6
ExecutionTime = 0.221011 s  ClockTime = 0 s

Time = 74s

smoothSolver:  Solving for Ux, Initial residual = 0.00351495, Final residual = 0.000322978, No Iterations 5
smoothSolver:  Solving for Uy, Initial residual = 0.0153901, Final residual = 0.00113082, No Iterations 6
Pressure gradient source: uncorrected Ubar = 1.00042, pressure gradient = 2.56559
GAMG:  Solving for p, Initial residual = 0.000236143, Final residual = 1.99662e-05, No Iterations 14
time step continuity errors : sum local = 1.63676e-05, global = -9.85353e-18, cumulative = -2.13175e-17
Pressure gradient source: uncorrected Ubar = 1.00002, pressure gradient = 3.09838
smoothSolver:  Solving for omega, Initial residual = 0.000507117, Final residual = 3.89593e-05, No Iterations 6
smoothSolver:  Solving for k, Initial residual = 0.00598865, Final residual = 0.000492368, No Iterations 6
ExecutionTime = 0.224058 s  ClockTime = 0 s

Time = 75s

smoothSolver:  Solving for Ux, Initial residual = 0.00348658, Final residual = 0.000321432, No Iterations 5
smoothSolver:  Solving for Uy, Initial residual = 0.0151739, Final residual = 0.00111623, No Iterations 6
Pressure gradient source: uncorrected Ubar = 1.00042, pressure gradient = 2.53608
GAMG:  Solving for p, Initial residual = 0.000217844, Final residual = 1.93478e-05, No Iterations 14
time step continuity errors : sum local = 1.55664e-05, global = 4.37069e-18, cumulative = -1.69468e-17
Pressure gradient source: uncorrected Ubar = 1.00002, pressure gradient = 3.0769
smoothSolver:  Solving for omega, Initial residual = 0.000500049, Final residual = 3.8443e-05, No Iterations 6
smoothSolver:  Solving for k, Initial residual = 0.00593829, Final residual = 0.000487112, No Iterations 6
ExecutionTime = 0.227164 s  ClockTime = 0 s

Time = 76s

smoothSolver:  Solving for Ux, Initial residual = 0.00345883, Final residual = 0.000319887, No Iterations 5
smoothSolver:  Solving for Uy, Initial residual = 0.0149312, Final residual = 0.00110435, No Iterations 6
Pressure gradient source: uncorrected Ubar = 1.00042, pressure gradient = 2.50745
GAMG:  Solving for p, Initial residual = 0.000215847, Final residual = 2.11353e-05, No Iterations 12
time step continuity errors : sum local = 1.62494e-05, global = -2.71052e-19, cumulative = -1.72178e-17
Pressure gradient source: uncorrected Ubar = 1.00002, pressure gradient = 3.05416
smoothSolver:  Solving for omega, Initial residual = 0.000491296, Final residual = 3.76104e-05, No Iterations 6
smoothSolver:  Solving for k, Initial residual = 0.00591364, Final residual = 0.000486292, No Iterations 6
ExecutionTime = 0.230219 s  ClockTime = 0 s

Time = 77s

smoothSolver:  Solving for Ux, Initial residual = 0.00343261, Final residual = 0.000318406, No Iterations 5
smoothSolver:  Solving for Uy, Initial residual = 0.0149497, Final residual = 0.00111259, No Iterations 6
Pressure gradient source: uncorrected Ubar = 1.00042, pressure gradient = 2.47139
GAMG:  Solving for p, Initial residual = 0.000251957, Final residual = 2.34976e-05, No Iterations 12
time step continuity errors : sum local = 1.74888e-05, global = 2.00442e-17, cumulative = 2.82636e-18
Pressure gradient source: uncorrected Ubar = 1.00002, pressure gradient = 3.02915
smoothSolver:  Solving for omega, Initial residual = 0.000484261, Final residual = 3.73437e-05, No Iterations 6
smoothSolver:  Solving for k, Initial residual = 0.00587466, Final residual = 0.00048384, No Iterations 6
ExecutionTime = 0.233196 s  ClockTime = 0 s

Time = 78s

smoothSolver:  Solving for Ux, Initial residual = 0.00340766, Final residual = 0.00031695, No Iterations 5
smoothSolver:  Solving for Uy, Initial residual = 0.0148661, Final residual = 0.00109726, No Iterations 6
Pressure gradient source: uncorrected Ubar = 1.00042, pressure gradient = 2.44438
GAMG:  Solving for p, Initial residual = 0.000220864, Final residual = 2.10033e-05, No Iterations 12
time step continuity errors : sum local = 1.52443e-05, global = 4.67918e-17, cumulative = 4.96182e-17
Pressure gradient source: uncorrected Ubar = 1.00002, pressure gradient = 3.00363
smoothSolver:  Solving for omega, Initial residual = 0.000477471, Final residual = 3.71354e-05, No Iterations 6
smoothSolver:  Solving for k, Initial residual = 0.00585355, Final residual = 0.0004813, No Iterations 6
ExecutionTime = 0.236186 s  ClockTime = 0 s

Time = 79s

smoothSolver:  Solving for Ux, Initial residual = 0.00338364, Final residual = 0.000315516, No Iterations 5
smoothSolver:  Solving for Uy, Initial residual = 0.0147139, Final residual = 0.00110621, No Iterations 6
Pressure gradient source: uncorrected Ubar = 1.00042, pressure gradient = 2.40774
GAMG:  Solving for p, Initial residual = 0.000216246, Final residual = 2.10678e-05, No Iterations 12
time step continuity errors : sum local = 1.48284e-05, global = 9.6909e-18, cumulative = 5.93091e-17
Pressure gradient source: uncorrected Ubar = 1.00002, pressure gradient = 2.9761
smoothSolver:  Solving for omega, Initial residual = 0.000470291, Final residual = 3.65177e-05, No Iterations 6
smoothSolver:  Solving for k, Initial residual = 0.00582668, Final residual = 0.000483505, No Iterations 6
ExecutionTime = 0.239148 s  ClockTime = 0 s

Time = 80s

smoothSolver:  Solving for Ux, Initial residual = 0.00336032, Final residual = 0.000314322, No Iterations 5
smoothSolver:  Solving for Uy, Initial residual = 0.0146318, Final residual = 0.00110154, No Iterations 6
Pressure gradient source: uncorrected Ubar = 1.00042, pressure gradient = 2.37479
GAMG:  Solving for p, Initial residual = 0.000191955, Final residual = 1.65052e-05, No Iterations 14
time step continuity errors : sum local = 1.15612e-05, global = -2.25091e-17, cumulative = 3.68e-17
Pressure gradient source: uncorrected Ubar = 1.00002, pressure gradient = 2.94747
smoothSolver:  Solving for omega, Initial residual = 0.000463963, Final residual = 3.62272e-05, No Iterations 6
smoothSolver:  Solving for k, Initial residual = 0.0057913, Final residual = 0.000478155, No Iterations 6
ExecutionTime = 0.242204 s  ClockTime = 0 s

Time = 81s

smoothSolver:  Solving for Ux, Initial residual = 0.0033379, Final residual = 0.000313194, No Iterations 5
smoothSolver:  Solving for Uy, Initial residual = 0.0145509, Final residual = 0.00110431, No Iterations 6
Pressure gradient source: uncorrected Ubar = 1.00042, pressure gradient = 2.3356
GAMG:  Solving for p, Initial residual = 0.000204868, Final residual = 1.85766e-05, No Iterations 12
time step continuity errors : sum local = 1.24194e-05, global = -1.80452e-17, cumulative = 1.87548e-17
Pressure gradient source: uncorrected Ubar = 1.00002, pressure gradient = 2.91687
smoothSolver:  Solving for omega, Initial residual = 0.000457041, Final residual = 3.55586e-05, No Iterations 6
smoothSolver:  Solving for k, Initial residual = 0.00576149, Final residual = 0.000478294, No Iterations 6
ExecutionTime = 0.245191 s  ClockTime = 0 s

Time = 82s

smoothSolver:  Solving for Ux, Initial residual = 0.00331617, Final residual = 0.000312143, No Iterations 5
smoothSolver:  Solving for Uy, Initial residual = 0.0146577, Final residual = 0.00112886, No Iterations 6
Pressure gradient source: uncorrected Ubar = 1.00042, pressure gradient = 2.29751
GAMG:  Solving for p, Initial residual = 0.000202721, Final residual = 1.77705e-05, No Iterations 14
time step continuity errors : sum local = 1.15662e-05, global = 2.57752e-17, cumulative = 4.453e-17
Pressure gradient source: uncorrected Ubar = 1.00002, pressure gradient = 2.88479
smoothSolver:  Solving for omega, Initial residual = 0.000451677, Final residual = 3.53208e-05, No Iterations 6
smoothSolver:  Solving for k, Initial residual = 0.00572689, Final residual = 0.000473869, No Iterations 6
ExecutionTime = 0.248243 s  ClockTime = 0 s

Time = 83s

smoothSolver:  Solving for Ux, Initial residual = 0.00329545, Final residual = 0.000311075, No Iterations 5
smoothSolver:  Solving for Uy, Initial residual = 0.0148128, Final residual = 0.0011474, No Iterations 6
Pressure gradient source: uncorrected Ubar = 1.00042, pressure gradient = 2.25601
GAMG:  Solving for p, Initial residual = 0.000221078, Final residual = 1.85229e-05, No Iterations 14
time step continuity errors : sum local = 1.16563e-05, global = 3.27836e-17, cumulative = 7.73136e-17
Pressure gradient source: uncorrected Ubar = 1.00002, pressure gradient = 2.85091
smoothSolver:  Solving for omega, Initial residual = 0.000446244, Final residual = 3.49855e-05, No Iterations 6
smoothSolver:  Solving for k, Initial residual = 0.00569807, Final residual = 0.000474884, No Iterations 6
ExecutionTime = 0.25131 s  ClockTime = 0 s

Time = 84s

smoothSolver:  Solving for Ux, Initial residual = 0.00327557, Final residual = 0.000310045, No Iterations 5
smoothSolver:  Solving for Uy, Initial residual = 0.0146151, Final residual = 0.00114996, No Iterations 6
Pressure gradient source: uncorrected Ubar = 1.00041, pressure gradient = 2.22335
GAMG:  Solving for p, Initial residual = 0.00021552, Final residual = 1.78831e-05, No Iterations 14
time step continuity errors : sum local = 1.09246e-05, global = 1.7891e-17, cumulative = 9.52046e-17
Pressure gradient source: uncorrected Ubar = 1.00002, pressure gradient = 2.81699
smoothSolver:  Solving for omega, Initial residual = 0.000441193, Final residual = 3.46841e-05, No Iterations 6
smoothSolver:  Solving for k, Initial residual = 0.00567274, Final residual = 0.00047148, No Iterations 6
ExecutionTime = 0.254426 s  ClockTime = 0 s

Time = 85s

smoothSolver:  Solving for Ux, Initial residual = 0.00325679, Final residual = 0.000309051, No Iterations 5
smoothSolver:  Solving for Uy, Initial residual = 0.014421, Final residual = 0.00114521, No Iterations 6
Pressure gradient source: uncorrected Ubar = 1.00041, pressure gradient = 2.17766
GAMG:  Solving for p, Initial residual = 0.000207559, Final residual = 1.72319e-05, No Iterations 14
time step continuity errors : sum local = 1.02413e-05, global = 2.79826e-17, cumulative = 1.23187e-16
Pressure gradient source: uncorrected Ubar = 1.00002, pressure gradient = 2.78085
smoothSolver:  Solving for omega, Initial residual = 0.000436211, Final residual = 3.41753e-05, No Iterations 6
smoothSolver:  Solving for k, Initial residual = 0.00564683, Final residual = 0.000472264, No Iterations 6
ExecutionTime = 0.257481 s  ClockTime = 0 s

Time = 86s

smoothSolver:  Solving for Ux, Initial residual = 0.00323846, Final residual = 0.000308214, No Iterations 5
smoothSolver:  Solving for Uy, Initial residual = 0.0141686, Final residual = 0.0011271, No Iterations 6
Pressure gradient source: uncorrected Ubar = 1.00041, pressure gradient = 2.1383
GAMG:  Solving for p, Initial residual = 0.000191229, Final residual = 1.67646e-05, No Iterations 14
time step continuity errors : sum local = 9.76643e-06, global = -4.33512e-18, cumulative = 1.18852e-16
Pressure gradient source: uncorrected Ubar = 1.00002, pressure gradient = 2.74389
smoothSolver:  Solving for omega, Initial residual = 0.000431861, Final residual = 3.38306e-05, No Iterations 6
smoothSolver:  Solving for k, Initial residual = 0.00560912, Final residual = 0.000467615, No Iterations 6
ExecutionTime = 0.26061 s  ClockTime = 0 s

Time = 87s

smoothSolver:  Solving for Ux, Initial residual = 0.00322067, Final residual = 0.000307463, No Iterations 5
smoothSolver:  Solving for Uy, Initial residual = 0.0143798, Final residual = 0.0011527, No Iterations 6
Pressure gradient source: uncorrected Ubar = 1.00041, pressure gradient = 2.09513
GAMG:  Solving for p, Initial residual = 0.000202483, Final residual = 1.75071e-05, No Iterations 14
time step continuity errors : sum local = 9.80899e-06, global = -1.59412e-17, cumulative = 1.02911e-16
Pressure gradient source: uncorrected Ubar = 1.00002, pressure gradient = 2.70562
smoothSolver:  Solving for omega, Initial residual = 0.000427641, Final residual = 3.35846e-05, No Iterations 6
smoothSolver:  Solving for k, Initial residual = 0.00557496, Final residual = 0.000466328, No Iterations 6
ExecutionTime = 0.263692 s  ClockTime = 0 s

Time = 88s

smoothSolver:  Solving for Ux, Initial residual = 0.00320348, Final residual = 0.000306722, No Iterations 5
smoothSolver:  Solving for Uy, Initial residual = 0.0143422, Final residual = 0.00114794, No Iterations 6
Pressure gradient source: uncorrected Ubar = 1.0004, pressure gradient = 2.05819
GAMG:  Solving for p, Initial residual = 0.000203363, Final residual = 1.66668e-05, No Iterations 14
time step continuity errors : sum local = 8.99092e-06, global = 3.96327e-17, cumulative = 1.42544e-16
Pressure gradient source: uncorrected Ubar = 1.00002, pressure gradient = 2.6673
smoothSolver:  Solving for omega, Initial residual = 0.000424212, Final residual = 3.33285e-05, No Iterations 6
smoothSolver:  Solving for k, Initial residual = 0.00554421, Final residual = 0.000462749, No Iterations 6
ExecutionTime = 0.266805 s  ClockTime = 0 s

Time = 89s

smoothSolver:  Solving for Ux, Initial residual = 0.00318714, Final residual = 0.000305977, No Iterations 5
smoothSolver:  Solving for Uy, Initial residual = 0.01442, Final residual = 0.00114275, No Iterations 6
Pressure gradient source: uncorrected Ubar = 1.0004, pressure gradient = 2.01237
GAMG:  Solving for p, Initial residual = 0.000209758, Final residual = 1.93505e-05, No Iterations 12
[...]
smoothSolver:  Solving for omega, Initial residual = 7.24149e-06, Final residual = 7.24149e-06, No Iterations 0
smoothSolver:  Solving for k, Initial residual = 1.69774e-05, Final residual = 6.59976e-06, No Iterations 2
ExecutionTime = 7.83053 s  ClockTime = 7 s

Time = 2919s

smoothSolver:  Solving for Ux, Initial residual = 4.73337e-06, Final residual = 4.73337e-06, No Iterations 0
smoothSolver:  Solving for Uy, Initial residual = 0.000115849, Final residual = 7.51513e-06, No Iterations 4
Pressure gradient source: uncorrected Ubar = 1, pressure gradient = 0.00419596
GAMG:  Solving for p, Initial residual = 4.44022e-05, Final residual = 4.1227e-06, No Iterations 5
time step continuity errors : sum local = 5.09338e-10, global = 4.48743e-18, cumulative = 4.94134e-16
Pressure gradient source: uncorrected Ubar = 1, pressure gradient = 0.00419603
smoothSolver:  Solving for omega, Initial residual = 7.24149e-06, Final residual = 7.24149e-06, No Iterations 0
smoothSolver:  Solving for k, Initial residual = 1.69932e-05, Final residual = 6.60616e-06, No Iterations 2
ExecutionTime = 7.83298 s  ClockTime = 7 s

Time = 2920s

smoothSolver:  Solving for Ux, Initial residual = 4.68669e-06, Final residual = 4.68669e-06, No Iterations 0
smoothSolver:  Solving for Uy, Initial residual = 0.000115769, Final residual = 7.58455e-06, No Iterations 4
Pressure gradient source: uncorrected Ubar = 1, pressure gradient = 0.00419603
GAMG:  Solving for p, Initial residual = 4.41337e-05, Final residual = 4.03193e-06, No Iterations 5
time step continuity errors : sum local = 4.99968e-10, global = -2.82663e-18, cumulative = 4.91307e-16
Pressure gradient source: uncorrected Ubar = 1, pressure gradient = 0.00419611
smoothSolver:  Solving for omega, Initial residual = 7.2415e-06, Final residual = 7.2415e-06, No Iterations 0
smoothSolver:  Solving for k, Initial residual = 1.70086e-05, Final residual = 6.61237e-06, No Iterations 2
ExecutionTime = 7.83546 s  ClockTime = 7 s

Time = 2921s

smoothSolver:  Solving for Ux, Initial residual = 4.64005e-06, Final residual = 4.64005e-06, No Iterations 0
smoothSolver:  Solving for Uy, Initial residual = 0.000115698, Final residual = 7.59714e-06, No Iterations 4
Pressure gradient source: uncorrected Ubar = 1, pressure gradient = 0.00419611
GAMG:  Solving for p, Initial residual = 4.39752e-05, Final residual = 3.57639e-06, No Iterations 5
time step continuity errors : sum local = 4.49542e-10, global = 1.42352e-18, cumulative = 4.92731e-16
Pressure gradient source: uncorrected Ubar = 1, pressure gradient = 0.00419619
smoothSolver:  Solving for omega, Initial residual = 7.2415e-06, Final residual = 7.2415e-06, No Iterations 0
smoothSolver:  Solving for k, Initial residual = 1.70236e-05, Final residual = 6.61845e-06, No Iterations 2
ExecutionTime = 7.83792 s  ClockTime = 7 s

Time = 2922s

smoothSolver:  Solving for Ux, Initial residual = 4.59348e-06, Final residual = 4.59348e-06, No Iterations 0
smoothSolver:  Solving for Uy, Initial residual = 0.00011565, Final residual = 7.54784e-06, No Iterations 4
Pressure gradient source: uncorrected Ubar = 1, pressure gradient = 0.00419619
GAMG:  Solving for p, Initial residual = 4.36688e-05, Final residual = 4.34479e-06, No Iterations 4
time step continuity errors : sum local = 5.44249e-10, global = -9.75198e-19, cumulative = 4.91756e-16
Pressure gradient source: uncorrected Ubar = 1, pressure gradient = 0.00419627
smoothSolver:  Solving for omega, Initial residual = 7.24151e-06, Final residual = 7.24151e-06, No Iterations 0
smoothSolver:  Solving for k, Initial residual = 1.70382e-05, Final residual = 6.62436e-06, No Iterations 2
ExecutionTime = 7.84032 s  ClockTime = 7 s

Time = 2923s

smoothSolver:  Solving for Ux, Initial residual = 4.54696e-06, Final residual = 4.54696e-06, No Iterations 0
smoothSolver:  Solving for Uy, Initial residual = 0.000115085, Final residual = 7.56071e-06, No Iterations 4
Pressure gradient source: uncorrected Ubar = 1, pressure gradient = 0.00419627
GAMG:  Solving for p, Initial residual = 4.40474e-05, Final residual = 4.2199e-06, No Iterations 5
time step continuity errors : sum local = 5.29045e-10, global = -5.34409e-18, cumulative = 4.86412e-16
Pressure gradient source: uncorrected Ubar = 1, pressure gradient = 0.00419634
smoothSolver:  Solving for omega, Initial residual = 7.24151e-06, Final residual = 7.24151e-06, No Iterations 0
smoothSolver:  Solving for k, Initial residual = 1.70524e-05, Final residual = 6.63013e-06, No Iterations 2
ExecutionTime = 7.84282 s  ClockTime = 7 s

Time = 2924s

smoothSolver:  Solving for Ux, Initial residual = 4.50049e-06, Final residual = 4.50049e-06, No Iterations 0
smoothSolver:  Solving for Uy, Initial residual = 0.000114628, Final residual = 7.61838e-06, No Iterations 4
Pressure gradient source: uncorrected Ubar = 1, pressure gradient = 0.00419634
GAMG:  Solving for p, Initial residual = 4.38733e-05, Final residual = 4.12561e-06, No Iterations 5
time step continuity errors : sum local = 5.18312e-10, global = 9.11694e-19, cumulative = 4.87323e-16
Pressure gradient source: uncorrected Ubar = 1, pressure gradient = 0.00419642
smoothSolver:  Solving for omega, Initial residual = 7.24151e-06, Final residual = 7.24151e-06, No Iterations 0
smoothSolver:  Solving for k, Initial residual = 1.70662e-05, Final residual = 6.63572e-06, No Iterations 2
ExecutionTime = 7.8453 s  ClockTime = 7 s

Time = 2925s

smoothSolver:  Solving for Ux, Initial residual = 4.45409e-06, Final residual = 4.45409e-06, No Iterations 0
smoothSolver:  Solving for Uy, Initial residual = 0.000114405, Final residual = 7.61011e-06, No Iterations 4
Pressure gradient source: uncorrected Ubar = 1, pressure gradient = 0.00419642
GAMG:  Solving for p, Initial residual = 4.37157e-05, Final residual = 3.61811e-06, No Iterations 5
time step continuity errors : sum local = 4.61199e-10, global = -1.75535e-18, cumulative = 4.85568e-16
Pressure gradient source: uncorrected Ubar = 1, pressure gradient = 0.0041965
smoothSolver:  Solving for omega, Initial residual = 7.24152e-06, Final residual = 7.24152e-06, No Iterations 0
smoothSolver:  Solving for k, Initial residual = 1.70796e-05, Final residual = 6.64118e-06, No Iterations 2
ExecutionTime = 7.84776 s  ClockTime = 8 s

Time = 2926s

smoothSolver:  Solving for Ux, Initial residual = 4.40774e-06, Final residual = 4.40774e-06, No Iterations 0
smoothSolver:  Solving for Uy, Initial residual = 0.000114304, Final residual = 7.54033e-06, No Iterations 4
Pressure gradient source: uncorrected Ubar = 1, pressure gradient = 0.0041965
GAMG:  Solving for p, Initial residual = 4.33662e-05, Final residual = 4.33485e-06, No Iterations 4
time step continuity errors : sum local = 5.49591e-10, global = -1.96688e-18, cumulative = 4.83601e-16
Pressure gradient source: uncorrected Ubar = 1, pressure gradient = 0.00419658
smoothSolver:  Solving for omega, Initial residual = 7.24152e-06, Final residual = 7.24152e-06, No Iterations 0
smoothSolver:  Solving for k, Initial residual = 1.70926e-05, Final residual = 6.64647e-06, No Iterations 2
ExecutionTime = 7.85016 s  ClockTime = 8 s

Time = 2927s

smoothSolver:  Solving for Ux, Initial residual = 4.36145e-06, Final residual = 4.36145e-06, No Iterations 0
smoothSolver:  Solving for Uy, Initial residual = 0.000113671, Final residual = 7.52503e-06, No Iterations 4
Pressure gradient source: uncorrected Ubar = 1, pressure gradient = 0.00419658
GAMG:  Solving for p, Initial residual = 4.37071e-05, Final residual = 4.32752e-06, No Iterations 5
time step continuity errors : sum local = 5.4758e-10, global = 3.75209e-18, cumulative = 4.87353e-16
Pressure gradient source: uncorrected Ubar = 1, pressure gradient = 0.00419665
smoothSolver:  Solving for omega, Initial residual = 7.24152e-06, Final residual = 7.24152e-06, No Iterations 0
smoothSolver:  Solving for k, Initial residual = 1.71052e-05, Final residual = 6.65163e-06, No Iterations 2
ExecutionTime = 7.85261 s  ClockTime = 8 s

Time = 2928s

smoothSolver:  Solving for Ux, Initial residual = 4.31521e-06, Final residual = 4.31521e-06, No Iterations 0
smoothSolver:  Solving for Uy, Initial residual = 0.000112959, Final residual = 7.55678e-06, No Iterations 4
Pressure gradient source: uncorrected Ubar = 1, pressure gradient = 0.00419665
GAMG:  Solving for p, Initial residual = 4.36058e-05, Final residual = 3.73414e-06, No Iterations 5
time step continuity errors : sum local = 4.80219e-10, global = 2.71914e-18, cumulative = 4.90072e-16
Pressure gradient source: uncorrected Ubar = 1, pressure gradient = 0.00419673
smoothSolver:  Solving for omega, Initial residual = 7.24152e-06, Final residual = 7.24152e-06, No Iterations 0
smoothSolver:  Solving for k, Initial residual = 1.71174e-05, Final residual = 6.65662e-06, No Iterations 2
ExecutionTime = 7.85509 s  ClockTime = 8 s

Time = 2929s

smoothSolver:  Solving for Ux, Initial residual = 4.26904e-06, Final residual = 4.26904e-06, No Iterations 0
smoothSolver:  Solving for Uy, Initial residual = 0.000112876, Final residual = 7.47772e-06, No Iterations 4
Pressure gradient source: uncorrected Ubar = 1, pressure gradient = 0.00419673
GAMG:  Solving for p, Initial residual = 4.31935e-05, Final residual = 3.48869e-06, No Iterations 5
time step continuity errors : sum local = 4.51132e-10, global = -1.01095e-19, cumulative = 4.89971e-16
Pressure gradient source: uncorrected Ubar = 1, pressure gradient = 0.00419681
smoothSolver:  Solving for omega, Initial residual = 7.24153e-06, Final residual = 7.24153e-06, No Iterations 0
smoothSolver:  Solving for k, Initial residual = 1.71293e-05, Final residual = 6.66147e-06, No Iterations 2
ExecutionTime = 7.85755 s  ClockTime = 8 s

Time = 2930s

smoothSolver:  Solving for Ux, Initial residual = 4.22292e-06, Final residual = 4.22292e-06, No Iterations 0
smoothSolver:  Solving for Uy, Initial residual = 0.00011258, Final residual = 7.47832e-06, No Iterations 4
Pressure gradient source: uncorrected Ubar = 1, pressure gradient = 0.00419681
GAMG:  Solving for p, Initial residual = 4.29554e-05, Final residual = 4.1308e-06, No Iterations 4
time step continuity errors : sum local = 5.29504e-10, global = 5.9238e-18, cumulative = 4.95895e-16
Pressure gradient source: uncorrected Ubar = 1, pressure gradient = 0.00419688
smoothSolver:  Solving for omega, Initial residual = 7.24153e-06, Final residual = 7.24153e-06, No Iterations 0
smoothSolver:  Solving for k, Initial residual = 1.71407e-05, Final residual = 6.66616e-06, No Iterations 2
ExecutionTime = 7.85999 s  ClockTime = 8 s

Time = 2931s

smoothSolver:  Solving for Ux, Initial residual = 4.17706e-06, Final residual = 4.17706e-06, No Iterations 0
smoothSolver:  Solving for Uy, Initial residual = 0.00011199, Final residual = 7.46107e-06, No Iterations 4
Pressure gradient source: uncorrected Ubar = 1, pressure gradient = 0.00419688
GAMG:  Solving for p, Initial residual = 4.32523e-05, Final residual = 4.31816e-06, No Iterations 5
time step continuity errors : sum local = 5.50689e-10, global = -2.14374e-18, cumulative = 4.93751e-16
Pressure gradient source: uncorrected Ubar = 1, pressure gradient = 0.00419696
smoothSolver:  Solving for omega, Initial residual = 7.24153e-06, Final residual = 7.24153e-06, No Iterations 0
smoothSolver:  Solving for k, Initial residual = 1.71518e-05, Final residual = 6.67072e-06, No Iterations 2
ExecutionTime = 7.86247 s  ClockTime = 8 s

Time = 2932s

smoothSolver:  Solving for Ux, Initial residual = 4.13139e-06, Final residual = 4.13139e-06, No Iterations 0
smoothSolver:  Solving for Uy, Initial residual = 0.0001109, Final residual = 7.42998e-06, No Iterations 4
Pressure gradient source: uncorrected Ubar = 1, pressure gradient = 0.00419696
GAMG:  Solving for p, Initial residual = 4.32616e-05, Final residual = 3.64086e-06, No Iterations 5
time step continuity errors : sum local = 4.72769e-10, global = -3.64458e-18, cumulative = 4.90107e-16
Pressure gradient source: uncorrected Ubar = 1, pressure gradient = 0.00419704
smoothSolver:  Solving for omega, Initial residual = 7.24153e-06, Final residual = 7.24153e-06, No Iterations 0
smoothSolver:  Solving for k, Initial residual = 1.71625e-05, Final residual = 6.67512e-06, No Iterations 2
ExecutionTime = 7.86497 s  ClockTime = 8 s

Time = 2933s

smoothSolver:  Solving for Ux, Initial residual = 4.08577e-06, Final residual = 4.08577e-06, No Iterations 0
smoothSolver:  Solving for Uy, Initial residual = 0.000110893, Final residual = 7.35001e-06, No Iterations 4
Pressure gradient source: uncorrected Ubar = 1, pressure gradient = 0.00419704
GAMG:  Solving for p, Initial residual = 4.28119e-05, Final residual = 2.54927e-06, No Iterations 4
time step continuity errors : sum local = 3.21781e-10, global = -2.1311e-19, cumulative = 4.89894e-16
Pressure gradient source: uncorrected Ubar = 1, pressure gradient = 0.00419712
smoothSolver:  Solving for omega, Initial residual = 7.24153e-06, Final residual = 7.24153e-06, No Iterations 0
smoothSolver:  Solving for k, Initial residual = 1.71728e-05, Final residual = 6.67938e-06, No Iterations 2
ExecutionTime = 7.86738 s  ClockTime = 8 s

Time = 2934s

smoothSolver:  Solving for Ux, Initial residual = 4.04021e-06, Final residual = 4.04021e-06, No Iterations 0
smoothSolver:  Solving for Uy, Initial residual = 0.000112462, Final residual = 7.6586e-06, No Iterations 4
Pressure gradient source: uncorrected Ubar = 1, pressure gradient = 0.00419712
GAMG:  Solving for p, Initial residual = 4.1997e-05, Final residual = 3.98876e-06, No Iterations 4
time step continuity errors : sum local = 5.03132e-10, global = -1.05361e-18, cumulative = 4.8884e-16
Pressure gradient source: uncorrected Ubar = 1, pressure gradient = 0.00419719
smoothSolver:  Solving for omega, Initial residual = 7.24153e-06, Final residual = 7.24153e-06, No Iterations 0
smoothSolver:  Solving for k, Initial residual = 1.71826e-05, Final residual = 6.68345e-06, No Iterations 2
ExecutionTime = 7.86983 s  ClockTime = 8 s

Time = 2935s

smoothSolver:  Solving for Ux, Initial residual = 3.99471e-06, Final residual = 3.99471e-06, No Iterations 0
smoothSolver:  Solving for Uy, Initial residual = 0.000108645, Final residual = 7.42208e-06, No Iterations 4
Pressure gradient source: uncorrected Ubar = 1, pressure gradient = 0.00419719
GAMG:  Solving for p, Initial residual = 4.17169e-05, Final residual = 3.84001e-06, No Iterations 6
time step continuity errors : sum local = 4.8488e-10, global = -5.32324e-18, cumulative = 4.83517e-16
Pressure gradient source: uncorrected Ubar = 1, pressure gradient = 0.00419727
smoothSolver:  Solving for omega, Initial residual = 7.24153e-06, Final residual = 7.24153e-06, No Iterations 0
smoothSolver:  Solving for k, Initial residual = 1.7192e-05, Final residual = 6.68736e-06, No Iterations 2
ExecutionTime = 7.87233 s  ClockTime = 8 s

Time = 2936s

smoothSolver:  Solving for Ux, Initial residual = 3.94927e-06, Final residual = 3.94927e-06, No Iterations 0
smoothSolver:  Solving for Uy, Initial residual = 0.000105981, Final residual = 7.3129e-06, No Iterations 4
Pressure gradient source: uncorrected Ubar = 1, pressure gradient = 0.00419727
GAMG:  Solving for p, Initial residual = 4.08429e-05, Final residual = 3.95876e-06, No Iterations 6
time step continuity errors : sum local = 5.00008e-10, global = -4.50941e-19, cumulative = 4.83066e-16
Pressure gradient source: uncorrected Ubar = 1, pressure gradient = 0.00419735
smoothSolver:  Solving for omega, Initial residual = 7.24153e-06, Final residual = 7.24153e-06, No Iterations 0
smoothSolver:  Solving for k, Initial residual = 1.7201e-05, Final residual = 6.69111e-06, No Iterations 2
ExecutionTime = 7.87484 s  ClockTime = 8 s

Time = 2937s

smoothSolver:  Solving for Ux, Initial residual = 3.90389e-06, Final residual = 3.90389e-06, No Iterations 0
smoothSolver:  Solving for Uy, Initial residual = 0.000104288, Final residual = 7.22131e-06, No Iterations 4
Pressure gradient source: uncorrected Ubar = 1, pressure gradient = 0.00419735
GAMG:  Solving for p, Initial residual = 4.0023e-05, Final residual = 3.20236e-06, No Iterations 7
time step continuity errors : sum local = 4.10197e-10, global = 3.37447e-18, cumulative = 4.8644e-16
Pressure gradient source: uncorrected Ubar = 1, pressure gradient = 0.00419742
smoothSolver:  Solving for omega, Initial residual = 7.24153e-06, Final residual = 7.24153e-06, No Iterations 0
smoothSolver:  Solving for k, Initial residual = 1.72097e-05, Final residual = 6.69473e-06, No Iterations 2
ExecutionTime = 7.87739 s  ClockTime = 8 s

Time = 2938s

smoothSolver:  Solving for Ux, Initial residual = 3.85856e-06, Final residual = 3.85856e-06, No Iterations 0
smoothSolver:  Solving for Uy, Initial residual = 0.000102923, Final residual = 7.14047e-06, No Iterations 4
Pressure gradient source: uncorrected Ubar = 1, pressure gradient = 0.00419742
GAMG:  Solving for p, Initial residual = 3.88045e-05, Final residual = 3.85851e-06, No Iterations 5
time step continuity errors : sum local = 4.90816e-10, global = -3.64525e-18, cumulative = 4.82795e-16
Pressure gradient source: uncorrected Ubar = 1, pressure gradient = 0.0041975
smoothSolver:  Solving for omega, Initial residual = 7.24153e-06, Final residual = 7.24153e-06, No Iterations 0
smoothSolver:  Solving for k, Initial residual = 1.72179e-05, Final residual = 6.69819e-06, No Iterations 2
ExecutionTime = 7.87987 s  ClockTime = 8 s

Time = 2939s

smoothSolver:  Solving for Ux, Initial residual = 3.8133e-06, Final residual = 3.8133e-06, No Iterations 0
smoothSolver:  Solving for Uy, Initial residual = 0.000101327, Final residual = 7.05367e-06, No Iterations 4
Pressure gradient source: uncorrected Ubar = 1, pressure gradient = 0.0041975
GAMG:  Solving for p, Initial residual = 3.81341e-05, Final residual = 3.28628e-06, No Iterations 6
time step continuity errors : sum local = 4.21435e-10, global = 8.71437e-18, cumulative = 4.91509e-16
Pressure gradient source: uncorrected Ubar = 1, pressure gradient = 0.00419758
smoothSolver:  Solving for omega, Initial residual = 7.24153e-06, Final residual = 7.24153e-06, No Iterations 0
smoothSolver:  Solving for k, Initial residual = 1.72258e-05, Final residual = 6.70152e-06, No Iterations 2
ExecutionTime = 7.88237 s  ClockTime = 8 s

Time = 2940s

smoothSolver:  Solving for Ux, Initial residual = 3.76809e-06, Final residual = 3.76809e-06, No Iterations 0
smoothSolver:  Solving for Uy, Initial residual = 0.000100274, Final residual = 7.0467e-06, No Iterations 4
Pressure gradient source: uncorrected Ubar = 1, pressure gradient = 0.00419758
GAMG:  Solving for p, Initial residual = 3.70937e-05, Final residual = 3.13627e-06, No Iterations 6
time step continuity errors : sum local = 4.02598e-10, global = -9.12789e-18, cumulative = 4.82382e-16
Pressure gradient source: uncorrected Ubar = 1, pressure gradient = 0.00419765
smoothSolver:  Solving for omega, Initial residual = 7.24153e-06, Final residual = 7.24153e-06, No Iterations 0
smoothSolver:  Solving for k, Initial residual = 1.72333e-05, Final residual = 6.70469e-06, No Iterations 2
ExecutionTime = 7.88489 s  ClockTime = 8 s

Time = 2941s

smoothSolver:  Solving for Ux, Initial residual = 3.72294e-06, Final residual = 3.72294e-06, No Iterations 0
smoothSolver:  Solving for Uy, Initial residual = 9.90563e-05, Final residual = 7.01709e-06, No Iterations 4
Pressure gradient source: uncorrected Ubar = 1, pressure gradient = 0.00419765
GAMG:  Solving for p, Initial residual = 3.62944e-05, Final residual = 3.04365e-06, No Iterations 6
time step continuity errors : sum local = 3.90642e-10, global = 1.48949e-18, cumulative = 4.83871e-16
Pressure gradient source: uncorrected Ubar = 1, pressure gradient = 0.00419773
smoothSolver:  Solving for omega, Initial residual = 7.24152e-06, Final residual = 7.24152e-06, No Iterations 0
smoothSolver:  Solving for k, Initial residual = 1.72405e-05, Final residual = 6.70773e-06, No Iterations 2
ExecutionTime = 7.88739 s  ClockTime = 8 s


SIMPLE solution converged in 2941 iterations

End

