/*---------------------------------------------------------------------------*\
  =========                 |
  \\      /  F ield         | OpenFOAM: The Open Source CFD Toolbox
   \\    /   O peration     | Website:  https://openfoam.org
    \\  /    A nd           | Version:  10
     \\/     M anipulation  |
\*---------------------------------------------------------------------------*/
Build  : 10-e450dce21ea5
Exec   : blockMesh
Date   : Feb 20 2023
Time   : 14:07:31
Host   : "w530-R9YK46P"
PID    : 18315
I/O    : uncollated
Case   : /home/jdmezazeron/gitDanielMezaZ/turbulenceVisualized/Data/SimulationFiles/K7_Re221
nProcs : 1
sigFpe : Enabling floating point exception trapping (FOAM_SIGFPE).
fileModificationChecking : Monitoring run-time modified files using timeStampMaster (fileModificationSkew 10)
allowSystemOperations : Allowing user-supplied system call operations

// * * * * * * * * * * * * * * * * * * * * * * * * * * * * * * * * * * * * * //
Create time

Deleting polyMesh directory
    "/home/jdmezazeron/gitDanielMezaZ/turbulenceVisualized/Data/SimulationFiles/K7_Re221/constant/polyMesh"
Reading "blockMeshDict"

Creating block mesh from
    "system/blockMeshDict"
Creating block edges
No non-planar block faces defined
Creating topology blocks
Creating topology patches

Creating block mesh topology

Check topology

	Basic statistics
		Number of internal faces : 0
		Number of boundary faces : 6
		Number of defined boundary faces : 6
		Number of undefined boundary faces : 0
	Checking patch -> block consistency

Creating block offsets
Creating merge list .

Creating polyMesh from blockMesh
Creating patches
Creating cells
Creating points with scale 1
    Block 0 cell size :
        i : 0.5
        j : 0.00461374 .. 0.018455
        k : 2

Detected cyclic patches; ordering boundary faces

Writing polyMesh
----------------
Mesh Information
----------------
  boundingBox: (-1 0 -1) (1 1 1)
  nPoints: 1010
  nCells: 400
  nFaces: 1704
  nInternalFaces: 696
----------------
Patches
----------------
  patch 0 (start: 696 size: 100) name: inlet
  patch 1 (start: 796 size: 100) name: outlet
  patch 2 (start: 896 size: 4) name: fixedWalls-bottom
  patch 3 (start: 900 size: 4) name: fixedWalls-top
  patch 4 (start: 904 size: 800) name: frontAndBack

End

/*---------------------------------------------------------------------------*\
  =========                 |
  \\      /  F ield         | OpenFOAM: The Open Source CFD Toolbox
   \\    /   O peration     | Website:  https://openfoam.org
    \\  /    A nd           | Version:  10
     \\/     M anipulation  |
\*---------------------------------------------------------------------------*/
Build  : 10-e450dce21ea5
Exec   : simpleFoam
Date   : Feb 20 2023
Time   : 14:07:31
Host   : "w530-R9YK46P"
PID    : 18316
I/O    : uncollated
Case   : /home/jdmezazeron/gitDanielMezaZ/turbulenceVisualized/Data/SimulationFiles/K7_Re221
nProcs : 1
sigFpe : Enabling floating point exception trapping (FOAM_SIGFPE).
fileModificationChecking : Monitoring run-time modified files using timeStampMaster (fileModificationSkew 10)
allowSystemOperations : Allowing user-supplied system call operations

// * * * * * * * * * * * * * * * * * * * * * * * * * * * * * * * * * * * * * //
Create time

Create mesh for time = 0


SIMPLE: Convergence criteria found
        U: tolerance 0.0001
        p: tolerance 0.01
        omega: tolerance 0.0001

Reading field p

Reading field U

Reading/calculating face flux field phi

Selecting viscosity model Newtonian
Selecting turbulence model type RAS
Selecting RAS turbulence model kOmegaSST
Selecting patchDistMethod meshWave
RAS
{
    RASModel        kOmegaSST;
    turbulence      on;
    printCoeffs     on;
    alphaK1         0.85;
    alphaK2         1;
    alphaOmega1     0.5;
    alphaOmega2     0.856;
    gamma1          0.555556;
    gamma2          0.44;
    beta1           0.075;
    beta2           0.0828;
    betaStar        0.09;
    a1              0.31;
    b1              1;
    c1              10;
    F3              false;
}

No MRF models present

--> FOAM Warning : Creating fvModels from "system/fvOptions" rather than constant/fvModels
No fvModels present
--> FOAM Warning : Creating fvConstraints from "system/fvOptions"

Selecting finite volume constraint type meanVelocityForce
    Name: momentumSource
    - selecting all cells
    - selected 400 cell(s) with volume 4
    Initial pressure gradient = 0


Starting time loop

turbulenceFields stressComponents: storing fields:
    R

Time = 1s

smoothSolver:  Solving for Ux, Initial residual = 0, Final residual = 0, No Iterations 0
smoothSolver:  Solving for Uy, Initial residual = 0, Final residual = 0, No Iterations 0
Pressure gradient source: uncorrected Ubar = 0, pressure gradient = 1781.77
GAMG:  Solving for p, Initial residual = 0.999996, Final residual = 0.0465413, No Iterations 3
time step continuity errors : sum local = 1.07205e-16, global = -9.09943e-19, cumulative = -9.09943e-19
Pressure gradient source: uncorrected Ubar = 0.884648, pressure gradient = 205.532
smoothSolver:  Solving for omega, Initial residual = 0.090448, Final residual = 0.00546513, No Iterations 3
smoothSolver:  Solving for k, Initial residual = 1, Final residual = 0.0559047, No Iterations 2
ExecutionTime = 0.014176 s  ClockTime = 0 s

Time = 2s

smoothSolver:  Solving for Ux, Initial residual = 0.93951, Final residual = 0.0801458, No Iterations 6
smoothSolver:  Solving for Uy, Initial residual = 1, Final residual = 0.071702, No Iterations 6
Pressure gradient source: uncorrected Ubar = 12.0947, pressure gradient = -1541.81
GAMG:  Solving for p, Initial residual = 1, Final residual = 0.0903313, No Iterations 16
time step continuity errors : sum local = 0.00471918, global = -1.99459e-17, cumulative = -2.08559e-17
Pressure gradient source: uncorrected Ubar = 2.39812, pressure gradient = -14.6621
smoothSolver:  Solving for omega, Initial residual = 0.198069, Final residual = 0.00078292, No Iterations 1
smoothSolver:  Solving for k, Initial residual = 0.74551, Final residual = 0.0199998, No Iterations 1
ExecutionTime = 0.017341 s  ClockTime = 0 s

Time = 3s

smoothSolver:  Solving for Ux, Initial residual = 0.353278, Final residual = 0.0339846, No Iterations 5
smoothSolver:  Solving for Uy, Initial residual = 0.305736, Final residual = 0.0224111, No Iterations 5
Pressure gradient source: uncorrected Ubar = 0.288073, pressure gradient = 100.403
GAMG:  Solving for p, Initial residual = 0.218032, Final residual = 0.019469, No Iterations 7
time step continuity errors : sum local = 0.00198124, global = 6.8813e-18, cumulative = -1.39746e-17
Pressure gradient source: uncorrected Ubar = 0.903765, pressure gradient = 0.891903
smoothSolver:  Solving for omega, Initial residual = 0.00928912, Final residual = 0.000182016, No Iterations 1
smoothSolver:  Solving for k, Initial residual = 0.0629107, Final residual = 0.00388422, No Iterations 2
ExecutionTime = 0.019993 s  ClockTime = 0 s

Time = 4s

smoothSolver:  Solving for Ux, Initial residual = 0.0476274, Final residual = 0.00394694, No Iterations 4
smoothSolver:  Solving for Uy, Initial residual = 0.136157, Final residual = 0.0117494, No Iterations 5
Pressure gradient source: uncorrected Ubar = 1.02099, pressure gradient = -2.33409
GAMG:  Solving for p, Initial residual = 0.22087, Final residual = 0.0197192, No Iterations 16
time step continuity errors : sum local = 0.00205109, global = -4.20806e-18, cumulative = -1.81826e-17
Pressure gradient source: uncorrected Ubar = 1.00265, pressure gradient = 0.484297
smoothSolver:  Solving for omega, Initial residual = 0.00800322, Final residual = 0.000137747, No Iterations 1
smoothSolver:  Solving for k, Initial residual = 0.020221, Final residual = 0.00195647, No Iterations 4
ExecutionTime = 0.023079 s  ClockTime = 0 s

Time = 5s

smoothSolver:  Solving for Ux, Initial residual = 0.0276174, Final residual = 0.00261023, No Iterations 4
smoothSolver:  Solving for Uy, Initial residual = 0.117947, Final residual = 0.0115997, No Iterations 5
Pressure gradient source: uncorrected Ubar = 0.99955, pressure gradient = 0.55341
GAMG:  Solving for p, Initial residual = 0.232895, Final residual = 0.0186872, No Iterations 8
time step continuity errors : sum local = 0.00177688, global = -4.79421e-18, cumulative = -2.29768e-17
Pressure gradient source: uncorrected Ubar = 0.999743, pressure gradient = 0.523797
smoothSolver:  Solving for omega, Initial residual = 0.00327504, Final residual = 8.16933e-05, No Iterations 1
smoothSolver:  Solving for k, Initial residual = 0.0188903, Final residual = 0.00162838, No Iterations 5
ExecutionTime = 0.025781 s  ClockTime = 0 s

Time = 6s

smoothSolver:  Solving for Ux, Initial residual = 0.0241563, Final residual = 0.0015838, No Iterations 5
smoothSolver:  Solving for Uy, Initial residual = 0.141115, Final residual = 0.0118475, No Iterations 5
Pressure gradient source: uncorrected Ubar = 0.9962, pressure gradient = 1.12892
GAMG:  Solving for p, Initial residual = 0.220917, Final residual = 0.0187299, No Iterations 18
time step continuity errors : sum local = 0.00109348, global = -2.85958e-18, cumulative = -2.58364e-17
Pressure gradient source: uncorrected Ubar = 0.999435, pressure gradient = 0.613769
smoothSolver:  Solving for omega, Initial residual = 0.00215791, Final residual = 5.31618e-05, No Iterations 1
smoothSolver:  Solving for k, Initial residual = 0.0347678, Final residual = 0.00239995, No Iterations 6
ExecutionTime = 0.028998 s  ClockTime = 0 s

Time = 7s

smoothSolver:  Solving for Ux, Initial residual = 0.0240878, Final residual = 0.00164893, No Iterations 5
smoothSolver:  Solving for Uy, Initial residual = 0.0844234, Final residual = 0.00784638, No Iterations 4
Pressure gradient source: uncorrected Ubar = 0.998096, pressure gradient = 0.935443
GAMG:  Solving for p, Initial residual = 0.198055, Final residual = 0.0191859, No Iterations 17
time step continuity errors : sum local = 0.000590466, global = 9.04674e-18, cumulative = -1.67897e-17
Pressure gradient source: uncorrected Ubar = 0.999694, pressure gradient = 0.665554
smoothSolver:  Solving for omega, Initial residual = 0.00108983, Final residual = 2.96083e-05, No Iterations 1
smoothSolver:  Solving for k, Initial residual = 0.0528307, Final residual = 0.00375037, No Iterations 6
ExecutionTime = 0.0321 s  ClockTime = 0 s

Time = 8s

smoothSolver:  Solving for Ux, Initial residual = 0.0242034, Final residual = 0.00166875, No Iterations 5
smoothSolver:  Solving for Uy, Initial residual = 0.0837936, Final residual = 0.00611198, No Iterations 5
Pressure gradient source: uncorrected Ubar = 0.998707, pressure gradient = 0.901109
GAMG:  Solving for p, Initial residual = 0.0632502, Final residual = 0.00624859, No Iterations 11
time step continuity errors : sum local = 0.000253199, global = 3.50418e-18, cumulative = -1.32855e-17
Pressure gradient source: uncorrected Ubar = 0.999782, pressure gradient = 0.705238
smoothSolver:  Solving for omega, Initial residual = 0.000636997, Final residual = 1.93032e-05, No Iterations 1
smoothSolver:  Solving for k, Initial residual = 0.0709645, Final residual = 0.00508472, No Iterations 6
ExecutionTime = 0.035273 s  ClockTime = 0 s

Time = 9s

smoothSolver:  Solving for Ux, Initial residual = 0.0248845, Final residual = 0.00167578, No Iterations 5
smoothSolver:  Solving for Uy, Initial residual = 0.0913854, Final residual = 0.0075981, No Iterations 5
Pressure gradient source: uncorrected Ubar = 0.998422, pressure gradient = 1.02049
GAMG:  Solving for p, Initial residual = 0.0684052, Final residual = 0.0059947, No Iterations 9
time step continuity errors : sum local = 0.000227975, global = 2.08031e-18, cumulative = -1.12052e-17
Pressure gradient source: uncorrected Ubar = 0.999755, pressure gradient = 0.754156
smoothSolver:  Solving for omega, Initial residual = 0.000345284, Final residual = 1.18e-05, No Iterations 1
smoothSolver:  Solving for k, Initial residual = 0.0753708, Final residual = 0.00564982, No Iterations 6
ExecutionTime = 0.038186 s  ClockTime = 0 s

Time = 10s

smoothSolver:  Solving for Ux, Initial residual = 0.0251344, Final residual = 0.00165681, No Iterations 5
smoothSolver:  Solving for Uy, Initial residual = 0.104112, Final residual = 0.00784247, No Iterations 5
Pressure gradient source: uncorrected Ubar = 0.999338, pressure gradient = 0.898082
GAMG:  Solving for p, Initial residual = 0.112831, Final residual = 0.0110789, No Iterations 9
time step continuity errors : sum local = 0.000335114, global = 3.43541e-18, cumulative = -7.7698e-18
Pressure gradient source: uncorrected Ubar = 0.999878, pressure gradient = 0.780649
smoothSolver:  Solving for omega, Initial residual = 0.000195311, Final residual = 8.19903e-06, No Iterations 1
smoothSolver:  Solving for k, Initial residual = 0.0520337, Final residual = 0.00407688, No Iterations 6
ExecutionTime = 0.040967 s  ClockTime = 0 s

Time = 11s

smoothSolver:  Solving for Ux, Initial residual = 0.0233363, Final residual = 0.00155335, No Iterations 5
smoothSolver:  Solving for Uy, Initial residual = 0.127659, Final residual = 0.00889713, No Iterations 5
Pressure gradient source: uncorrected Ubar = 1.00126, pressure gradient = 0.490178
GAMG:  Solving for p, Initial residual = 0.176129, Final residual = 0.0153148, No Iterations 12
time step continuity errors : sum local = 0.000332544, global = 1.93801e-18, cumulative = -5.83179e-18
Pressure gradient source: uncorrected Ubar = 1.00012, pressure gradient = 0.751796
smoothSolver:  Solving for omega, Initial residual = 0.000109091, Final residual = 5.48234e-06, No Iterations 1
smoothSolver:  Solving for k, Initial residual = 0.0353462, Final residual = 0.00280882, No Iterations 6
ExecutionTime = 0.043879 s  ClockTime = 0 s

Time = 12s

smoothSolver:  Solving for Ux, Initial residual = 0.0214238, Final residual = 0.00144045, No Iterations 5
smoothSolver:  Solving for Uy, Initial residual = 0.102628, Final residual = 0.0069472, No Iterations 5
Pressure gradient source: uncorrected Ubar = 1.00183, pressure gradient = 0.305342
GAMG:  Solving for p, Initial residual = 0.193593, Final residual = 0.0161738, No Iterations 12
time step continuity errors : sum local = 0.00025739, global = 1.06188e-17, cumulative = 4.78704e-18
Pressure gradient source: uncorrected Ubar = 1.0002, pressure gradient = 0.703824
smoothSolver:  Solving for omega, Initial residual = 6.19382e-05, Final residual = 4.16481e-06, No Iterations 1
smoothSolver:  Solving for k, Initial residual = 0.0259701, Final residual = 0.00207921, No Iterations 6
ExecutionTime = 0.046833 s  ClockTime = 0 s

Time = 13s

smoothSolver:  Solving for Ux, Initial residual = 0.0200303, Final residual = 0.00134776, No Iterations 5
smoothSolver:  Solving for Uy, Initial residual = 0.0672367, Final residual = 0.00429113, No Iterations 5
Pressure gradient source: uncorrected Ubar = 1.00175, pressure gradient = 0.254708
GAMG:  Solving for p, Initial residual = 0.108148, Final residual = 0.0107536, No Iterations 11
time step continuity errors : sum local = 0.000174217, global = -4.97717e-18, cumulative = -1.90124e-19
Pressure gradient source: uncorrected Ubar = 1.00019, pressure gradient = 0.656124
smoothSolver:  Solving for omega, Initial residual = 3.5695e-05, Final residual = 3.15199e-06, No Iterations 1
smoothSolver:  Solving for k, Initial residual = 0.0202745, Final residual = 0.00162228, No Iterations 6
ExecutionTime = 0.049734 s  ClockTime = 0 s

Time = 14s

smoothSolver:  Solving for Ux, Initial residual = 0.018977, Final residual = 0.00128237, No Iterations 5
smoothSolver:  Solving for Uy, Initial residual = 0.0582894, Final residual = 0.00430494, No Iterations 5
Pressure gradient source: uncorrected Ubar = 1.0015, pressure gradient = 0.2518
GAMG:  Solving for p, Initial residual = 0.0737344, Final residual = 0.0066432, No Iterations 6
time step continuity errors : sum local = 0.000110318, global = 8.57008e-18, cumulative = 8.37996e-18
Pressure gradient source: uncorrected Ubar = 1.00015, pressure gradient = 0.614848
smoothSolver:  Solving for omega, Initial residual = 2.10099e-05, Final residual = 2.62918e-06, No Iterations 1
smoothSolver:  Solving for k, Initial residual = 0.0162788, Final residual = 0.00132017, No Iterations 6
ExecutionTime = 0.05235 s  ClockTime = 0 s

Time = 15s

smoothSolver:  Solving for Ux, Initial residual = 0.0181104, Final residual = 0.00122753, No Iterations 5
smoothSolver:  Solving for Uy, Initial residual = 0.0668739, Final residual = 0.00555534, No Iterations 5
Pressure gradient source: uncorrected Ubar = 1.00145, pressure gradient = 0.206609
GAMG:  Solving for p, Initial residual = 0.0955423, Final residual = 0.00724486, No Iterations 5
time step continuity errors : sum local = 9.79628e-05, global = 7.3226e-18, cumulative = 1.57026e-17
Pressure gradient source: uncorrected Ubar = 1.00015, pressure gradient = 0.573768
smoothSolver:  Solving for omega, Initial residual = 1.29437e-05, Final residual = 2.25106e-06, No Iterations 1
smoothSolver:  Solving for k, Initial residual = 0.013196, Final residual = 0.00105682, No Iterations 6
ExecutionTime = 0.054961 s  ClockTime = 0 s

Time = 16s

smoothSolver:  Solving for Ux, Initial residual = 0.0173316, Final residual = 0.0011825, No Iterations 5
smoothSolver:  Solving for Uy, Initial residual = 0.091634, Final residual = 0.0074718, No Iterations 5
Pressure gradient source: uncorrected Ubar = 1.0013, pressure gradient = 0.192625
GAMG:  Solving for p, Initial residual = 0.118931, Final residual = 0.0102204, No Iterations 8
time step continuity errors : sum local = 0.000125166, global = 5.62605e-18, cumulative = 2.13286e-17
Pressure gradient source: uncorrected Ubar = 1.00013, pressure gradient = 0.536516
smoothSolver:  Solving for omega, Initial residual = 8.27591e-06, Final residual = 8.27591e-06, No Iterations 0
smoothSolver:  Solving for k, Initial residual = 0.0108263, Final residual = 0.000868817, No Iterations 6
ExecutionTime = 0.057666 s  ClockTime = 0 s

Time = 17s

smoothSolver:  Solving for Ux, Initial residual = 0.0165837, Final residual = 0.00113283, No Iterations 5
smoothSolver:  Solving for Uy, Initial residual = 0.101541, Final residual = 0.0085951, No Iterations 5
Pressure gradient source: uncorrected Ubar = 1.00146, pressure gradient = 0.0928513
GAMG:  Solving for p, Initial residual = 0.128219, Final residual = 0.0102003, No Iterations 7
time step continuity errors : sum local = 0.000112391, global = -3.55169e-18, cumulative = 1.77769e-17
Pressure gradient source: uncorrected Ubar = 1.00015, pressure gradient = 0.491316
smoothSolver:  Solving for omega, Initial residual = 8.40813e-06, Final residual = 8.40813e-06, No Iterations 0
smoothSolver:  Solving for k, Initial residual = 0.0088704, Final residual = 0.000707934, No Iterations 6
ExecutionTime = 0.060296 s  ClockTime = 0 s

Time = 18s

smoothSolver:  Solving for Ux, Initial residual = 0.0158827, Final residual = 0.00108839, No Iterations 5
smoothSolver:  Solving for Uy, Initial residual = 0.0943093, Final residual = 0.00845961, No Iterations 5
Pressure gradient source: uncorrected Ubar = 1.0011, pressure gradient = 0.14711
GAMG:  Solving for p, Initial residual = 0.146753, Final residual = 0.0112388, No Iterations 7
time step continuity errors : sum local = 0.00010366, global = 5.58618e-18, cumulative = 2.33631e-17
Pressure gradient source: uncorrected Ubar = 1.0001, pressure gradient = 0.458481
smoothSolver:  Solving for omega, Initial residual = 8.58221e-06, Final residual = 8.58221e-06, No Iterations 0
smoothSolver:  Solving for k, Initial residual = 0.00717123, Final residual = 0.000583677, No Iterations 6
ExecutionTime = 0.062966 s  ClockTime = 0 s

Time = 19s

smoothSolver:  Solving for Ux, Initial residual = 0.0150147, Final residual = 0.00104374, No Iterations 5
smoothSolver:  Solving for Uy, Initial residual = 0.0754481, Final residual = 0.00733868, No Iterations 5
Pressure gradient source: uncorrected Ubar = 1.0012, pressure gradient = 0.0707667
GAMG:  Solving for p, Initial residual = 0.145366, Final residual = 0.0118575, No Iterations 5
time step continuity errors : sum local = 9.23387e-05, global = -1.64155e-18, cumulative = 2.17215e-17
Pressure gradient source: uncorrected Ubar = 1.00012, pressure gradient = 0.419802
smoothSolver:  Solving for omega, Initial residual = 8.7614e-06, Final residual = 8.7614e-06, No Iterations 0
smoothSolver:  Solving for k, Initial residual = 0.00664825, Final residual = 0.000483547, No Iterations 6
ExecutionTime = 0.065542 s  ClockTime = 0 s

Time = 20s

smoothSolver:  Solving for Ux, Initial residual = 0.0142189, Final residual = 0.00099882, No Iterations 5
smoothSolver:  Solving for Uy, Initial residual = 0.0614578, Final residual = 0.00408048, No Iterations 6
Pressure gradient source: uncorrected Ubar = 1.00109, pressure gradient = 0.0557746
GAMG:  Solving for p, Initial residual = 0.132415, Final residual = 0.0114637, No Iterations 5
time step continuity errors : sum local = 8.04555e-05, global = -6.78992e-18, cumulative = 1.49316e-17
Pressure gradient source: uncorrected Ubar = 1.00011, pressure gradient = 0.383769
smoothSolver:  Solving for omega, Initial residual = 8.93423e-06, Final residual = 8.93423e-06, No Iterations 0
smoothSolver:  Solving for k, Initial residual = 0.00655911, Final residual = 0.000456894, No Iterations 6
ExecutionTime = 0.0681 s  ClockTime = 0 s

Time = 21s

smoothSolver:  Solving for Ux, Initial residual = 0.0133349, Final residual = 0.000959076, No Iterations 5
smoothSolver:  Solving for Uy, Initial residual = 0.0512822, Final residual = 0.00353327, No Iterations 6
Pressure gradient source: uncorrected Ubar = 1.00106, pressure gradient = 0.0222287
GAMG:  Solving for p, Initial residual = 0.113484, Final residual = 0.0111012, No Iterations 5
time step continuity errors : sum local = 6.8251e-05, global = -5.45989e-18, cumulative = 9.47173e-18
Pressure gradient source: uncorrected Ubar = 1.00011, pressure gradient = 0.347626
smoothSolver:  Solving for omega, Initial residual = 9.11618e-06, Final residual = 9.11618e-06, No Iterations 0
smoothSolver:  Solving for k, Initial residual = 0.00660089, Final residual = 0.000475596, No Iterations 6
ExecutionTime = 0.070671 s  ClockTime = 0 s

Time = 22s

smoothSolver:  Solving for Ux, Initial residual = 0.012553, Final residual = 0.000918178, No Iterations 5
smoothSolver:  Solving for Uy, Initial residual = 0.0436727, Final residual = 0.003034, No Iterations 6
Pressure gradient source: uncorrected Ubar = 1.00102, pressure gradient = -0.0089816
GAMG:  Solving for p, Initial residual = 0.10482, Final residual = 0.0100342, No Iterations 7
time step continuity errors : sum local = 6.43364e-05, global = -5.22397e-18, cumulative = 4.24776e-18
Pressure gradient source: uncorrected Ubar = 1.0001, pressure gradient = 0.311725
smoothSolver:  Solving for omega, Initial residual = 9.23441e-06, Final residual = 9.23441e-06, No Iterations 0
smoothSolver:  Solving for k, Initial residual = 0.00671622, Final residual = 0.000475896, No Iterations 6
ExecutionTime = 0.073351 s  ClockTime = 0 s

Time = 23s

smoothSolver:  Solving for Ux, Initial residual = 0.0117512, Final residual = 0.000881785, No Iterations 5
smoothSolver:  Solving for Uy, Initial residual = 0.0387047, Final residual = 0.002667, No Iterations 6
Pressure gradient source: uncorrected Ubar = 1.00096, pressure gradient = -0.0305228
GAMG:  Solving for p, Initial residual = 0.0931479, Final residual = 0.00787919, No Iterations 8
time step continuity errors : sum local = 5.56393e-05, global = -1.19652e-17, cumulative = -7.71741e-18
Pressure gradient source: uncorrected Ubar = 1.0001, pressure gradient = 0.277177
smoothSolver:  Solving for omega, Initial residual = 9.31277e-06, Final residual = 9.31277e-06, No Iterations 0
smoothSolver:  Solving for k, Initial residual = 0.00687544, Final residual = 0.000494469, No Iterations 6
ExecutionTime = 0.076043 s  ClockTime = 0 s

Time = 24s

smoothSolver:  Solving for Ux, Initial residual = 0.0111372, Final residual = 0.000851629, No Iterations 5
smoothSolver:  Solving for Uy, Initial residual = 0.034759, Final residual = 0.00243433, No Iterations 6
Pressure gradient source: uncorrected Ubar = 1.00089, pressure gradient = -0.0443634
GAMG:  Solving for p, Initial residual = 0.0795435, Final residual = 0.00782361, No Iterations 6
time step continuity errors : sum local = 5.76412e-05, global = -8.17387e-18, cumulative = -1.58913e-17
Pressure gradient source: uncorrected Ubar = 1.00009, pressure gradient = 0.244956
smoothSolver:  Solving for omega, Initial residual = 9.38621e-06, Final residual = 9.38621e-06, No Iterations 0
smoothSolver:  Solving for k, Initial residual = 0.00705695, Final residual = 0.000517617, No Iterations 6
ExecutionTime = 0.078655 s  ClockTime = 0 s

Time = 25s

smoothSolver:  Solving for Ux, Initial residual = 0.0103861, Final residual = 0.00081646, No Iterations 5
smoothSolver:  Solving for Uy, Initial residual = 0.0333825, Final residual = 0.00231144, No Iterations 6
Pressure gradient source: uncorrected Ubar = 1.00091, pressure gradient = -0.088832
GAMG:  Solving for p, Initial residual = 0.0768609, Final residual = 0.00675778, No Iterations 3
time step continuity errors : sum local = 4.93084e-05, global = 5.52599e-18, cumulative = -1.03653e-17
Pressure gradient source: uncorrected Ubar = 1.00009, pressure gradient = 0.210639
smoothSolver:  Solving for omega, Initial residual = 9.4365e-06, Final residual = 9.4365e-06, No Iterations 0
smoothSolver:  Solving for k, Initial residual = 0.00729383, Final residual = 0.00053652, No Iterations 6
ExecutionTime = 0.081115 s  ClockTime = 0 s

Time = 26s

smoothSolver:  Solving for Ux, Initial residual = 0.00999738, Final residual = 0.000798268, No Iterations 5
smoothSolver:  Solving for Uy, Initial residual = 0.0300329, Final residual = 0.00216787, No Iterations 6
Pressure gradient source: uncorrected Ubar = 1.00076, pressure gradient = -0.0717751
GAMG:  Solving for p, Initial residual = 0.064099, Final residual = 0.0049935, No Iterations 3
time step continuity errors : sum local = 3.70861e-05, global = 6.23628e-18, cumulative = -4.12901e-18
Pressure gradient source: uncorrected Ubar = 1.00007, pressure gradient = 0.182657
smoothSolver:  Solving for omega, Initial residual = 9.51203e-06, Final residual = 9.51203e-06, No Iterations 0
smoothSolver:  Solving for k, Initial residual = 0.00739632, Final residual = 0.000553792, No Iterations 6
ExecutionTime = 0.083592 s  ClockTime = 0 s

Time = 27s

smoothSolver:  Solving for Ux, Initial residual = 0.00947563, Final residual = 0.000776425, No Iterations 5
smoothSolver:  Solving for Uy, Initial residual = 0.0276036, Final residual = 0.00199289, No Iterations 6
Pressure gradient source: uncorrected Ubar = 1.00077, pressure gradient = -0.109477
GAMG:  Solving for p, Initial residual = 0.0627243, Final residual = 0.00249634, No Iterations 4
time step continuity errors : sum local = 1.77974e-05, global = 3.03649e-18, cumulative = -1.09252e-18
Pressure gradient source: uncorrected Ubar = 1.00008, pressure gradient = 0.153168
smoothSolver:  Solving for omega, Initial residual = 9.56671e-06, Final residual = 9.56671e-06, No Iterations 0
smoothSolver:  Solving for k, Initial residual = 0.00749622, Final residual = 0.000567574, No Iterations 6
ExecutionTime = 0.086099 s  ClockTime = 0 s

Time = 28s

smoothSolver:  Solving for Ux, Initial residual = 0.00896463, Final residual = 0.000752221, No Iterations 5
smoothSolver:  Solving for Uy, Initial residual = 0.0256732, Final residual = 0.00180263, No Iterations 6
Pressure gradient source: uncorrected Ubar = 1.00076, pressure gradient = -0.13558
GAMG:  Solving for p, Initial residual = 0.0579234, Final residual = 0.00361225, No Iterations 3
time step continuity errors : sum local = 2.54342e-05, global = -2.31187e-18, cumulative = -3.4044e-18
Pressure gradient source: uncorrected Ubar = 1.00008, pressure gradient = 0.123619
smoothSolver:  Solving for omega, Initial residual = 9.62486e-06, Final residual = 9.62486e-06, No Iterations 0
smoothSolver:  Solving for k, Initial residual = 0.00774234, Final residual = 0.000582909, No Iterations 6
ExecutionTime = 0.088571 s  ClockTime = 0 s

Time = 29s

smoothSolver:  Solving for Ux, Initial residual = 0.00862979, Final residual = 0.000739653, No Iterations 5
smoothSolver:  Solving for Uy, Initial residual = 0.0230853, Final residual = 0.0016853, No Iterations 6
Pressure gradient source: uncorrected Ubar = 1.00066, pressure gradient = -0.131615
GAMG:  Solving for p, Initial residual = 0.0595203, Final residual = 0.00371515, No Iterations 3
time step continuity errors : sum local = 2.66351e-05, global = 8.60859e-18, cumulative = 5.2042e-18
Pressure gradient source: uncorrected Ubar = 1.00007, pressure gradient = 0.0981644
smoothSolver:  Solving for omega, Initial residual = 9.67685e-06, Final residual = 9.67685e-06, No Iterations 0
smoothSolver:  Solving for k, Initial residual = 0.007915, Final residual = 0.000603577, No Iterations 6
ExecutionTime = 0.091064 s  ClockTime = 0 s

Time = 30s

smoothSolver:  Solving for Ux, Initial residual = 0.00834491, Final residual = 0.000730918, No Iterations 5
smoothSolver:  Solving for Uy, Initial residual = 0.0217748, Final residual = 0.00158036, No Iterations 6
Pressure gradient source: uncorrected Ubar = 1.00063, pressure gradient = -0.146085
GAMG:  Solving for p, Initial residual = 0.057241, Final residual = 0.00383472, No Iterations 3
time step continuity errors : sum local = 2.70315e-05, global = 2.6529e-18, cumulative = 7.8571e-18
Pressure gradient source: uncorrected Ubar = 1.00006, pressure gradient = 0.0739833
smoothSolver:  Solving for omega, Initial residual = 9.71136e-06, Final residual = 9.71136e-06, No Iterations 0
smoothSolver:  Solving for k, Initial residual = 0.00787839, Final residual = 0.000607512, No Iterations 6
ExecutionTime = 0.09354 s  ClockTime = 0 s

Time = 31s

smoothSolver:  Solving for Ux, Initial residual = 0.00787156, Final residual = 0.000709755, No Iterations 5
smoothSolver:  Solving for Uy, Initial residual = 0.0232779, Final residual = 0.00229421, No Iterations 5
Pressure gradient source: uncorrected Ubar = 1.00067, pressure gradient = -0.186682
GAMG:  Solving for p, Initial residual = 0.0639182, Final residual = 0.00502807, No Iterations 3
time step continuity errors : sum local = 3.4336e-05, global = 5.76721e-18, cumulative = 1.36243e-17
Pressure gradient source: uncorrected Ubar = 1.00007, pressure gradient = 0.0471667
smoothSolver:  Solving for omega, Initial residual = 9.76749e-06, Final residual = 9.76749e-06, No Iterations 0
smoothSolver:  Solving for k, Initial residual = 0.00811367, Final residual = 0.000615712, No Iterations 6
ExecutionTime = 0.095975 s  ClockTime = 0 s

Time = 32s

smoothSolver:  Solving for Ux, Initial residual = 0.00766041, Final residual = 0.000703174, No Iterations 5
smoothSolver:  Solving for Uy, Initial residual = 0.0210036, Final residual = 0.00144775, No Iterations 6
Pressure gradient source: uncorrected Ubar = 1.00056, pressure gradient = -0.173125
GAMG:  Solving for p, Initial residual = 0.0591374, Final residual = 0.00314362, No Iterations 3
time step continuity errors : sum local = 2.09917e-05, global = -6.3341e-18, cumulative = 7.29021e-18
Pressure gradient source: uncorrected Ubar = 1.00006, pressure gradient = 0.0253701
smoothSolver:  Solving for omega, Initial residual = 9.82325e-06, Final residual = 9.82325e-06, No Iterations 0
smoothSolver:  Solving for k, Initial residual = 0.00825356, Final residual = 0.000629936, No Iterations 6
ExecutionTime = 0.098431 s  ClockTime = 0 s

Time = 33s

smoothSolver:  Solving for Ux, Initial residual = 0.00751251, Final residual = 0.000705275, No Iterations 5
smoothSolver:  Solving for Uy, Initial residual = 0.0200301, Final residual = 0.00138957, No Iterations 6
Pressure gradient source: uncorrected Ubar = 1.00052, pressure gradient = -0.177097
GAMG:  Solving for p, Initial residual = 0.0569171, Final residual = 0.00372544, No Iterations 3
time step continuity errors : sum local = 2.41791e-05, global = 7.00284e-18, cumulative = 1.42931e-17
Pressure gradient source: uncorrected Ubar = 1.00005, pressure gradient = 0.00583251
smoothSolver:  Solving for omega, Initial residual = 9.85408e-06, Final residual = 9.85408e-06, No Iterations 0
smoothSolver:  Solving for k, Initial residual = 0.00813865, Final residual = 0.000633931, No Iterations 6
ExecutionTime = 0.100897 s  ClockTime = 0 s

Time = 34s

smoothSolver:  Solving for Ux, Initial residual = 0.0072691, Final residual = 0.000696908, No Iterations 5
smoothSolver:  Solving for Uy, Initial residual = 0.0221898, Final residual = 0.00201125, No Iterations 5
Pressure gradient source: uncorrected Ubar = 1.00054, pressure gradient = -0.205122
GAMG:  Solving for p, Initial residual = 0.0645196, Final residual = 0.00367646, No Iterations 3
time step continuity errors : sum local = 2.33912e-05, global = -2.39395e-18, cumulative = 1.18991e-17
Pressure gradient source: uncorrected Ubar = 1.00005, pressure gradient = -0.0151011
smoothSolver:  Solving for omega, Initial residual = 9.89557e-06, Final residual = 9.89557e-06, No Iterations 0
smoothSolver:  Solving for k, Initial residual = 0.00820036, Final residual = 0.000635806, No Iterations 6
ExecutionTime = 0.103395 s  ClockTime = 0 s

Time = 35s

smoothSolver:  Solving for Ux, Initial residual = 0.00690001, Final residual = 0.000681809, No Iterations 5
smoothSolver:  Solving for Uy, Initial residual = 0.022905, Final residual = 0.00198148, No Iterations 5
Pressure gradient source: uncorrected Ubar = 1.00054, pressure gradient = -0.228754
GAMG:  Solving for p, Initial residual = 0.0611066, Final residual = 0.00396907, No Iterations 3
time step continuity errors : sum local = 2.46499e-05, global = 5.83743e-18, cumulative = 1.77365e-17
Pressure gradient source: uncorrected Ubar = 1.00006, pressure gradient = -0.0368577
smoothSolver:  Solving for omega, Initial residual = 9.93072e-06, Final residual = 9.93072e-06, No Iterations 0
smoothSolver:  Solving for k, Initial residual = 0.00837046, Final residual = 0.00064243, No Iterations 6
ExecutionTime = 0.105843 s  ClockTime = 0 s

Time = 36s

smoothSolver:  Solving for Ux, Initial residual = 0.00682794, Final residual = 0.000457264, No Iterations 6
smoothSolver:  Solving for Uy, Initial residual = 0.0209201, Final residual = 0.00194521, No Iterations 5
Pressure gradient source: uncorrected Ubar = 1.0004, pressure gradient = -0.192396
GAMG:  Solving for p, Initial residual = 0.0576448, Final residual = 0.00439251, No Iterations 3
time step continuity errors : sum local = 2.69537e-05, global = 4.29034e-18, cumulative = 2.20269e-17
Pressure gradient source: uncorrected Ubar = 1.00004, pressure gradient = -0.0517576
smoothSolver:  Solving for omega, Initial residual = 9.95158e-06, Final residual = 9.95158e-06, No Iterations 0
smoothSolver:  Solving for k, Initial residual = 0.00829751, Final residual = 0.000648947, No Iterations 6
ExecutionTime = 0.108298 s  ClockTime = 0 s

Time = 37s

smoothSolver:  Solving for Ux, Initial residual = 0.00679424, Final residual = 0.000460403, No Iterations 6
smoothSolver:  Solving for Uy, Initial residual = 0.0222458, Final residual = 0.00199389, No Iterations 5
Pressure gradient source: uncorrected Ubar = 1.00039, pressure gradient = -0.204393
GAMG:  Solving for p, Initial residual = 0.0576782, Final residual = 0.00419201, No Iterations 3
time step continuity errors : sum local = 2.57749e-05, global = 3.37032e-18, cumulative = 2.53972e-17
Pressure gradient source: uncorrected Ubar = 1.00004, pressure gradient = -0.0663722
smoothSolver:  Solving for omega, Initial residual = 9.96254e-06, Final residual = 9.96254e-06, No Iterations 0
smoothSolver:  Solving for k, Initial residual = 0.00833997, Final residual = 0.000648289, No Iterations 6
ExecutionTime = 0.110755 s  ClockTime = 0 s

Time = 38s

smoothSolver:  Solving for Ux, Initial residual = 0.0065702, Final residual = 0.000455718, No Iterations 6
smoothSolver:  Solving for Uy, Initial residual = 0.0242448, Final residual = 0.0021517, No Iterations 5
Pressure gradient source: uncorrected Ubar = 1.00043, pressure gradient = -0.235193
GAMG:  Solving for p, Initial residual = 0.0648935, Final residual = 0.00351521, No Iterations 3
time step continuity errors : sum local = 2.21905e-05, global = -7.31011e-18, cumulative = 1.80871e-17
Pressure gradient source: uncorrected Ubar = 1.00004, pressure gradient = -0.0833075
smoothSolver:  Solving for omega, Initial residual = 9.98775e-06, Final residual = 9.98775e-06, No Iterations 0
smoothSolver:  Solving for k, Initial residual = 0.00836524, Final residual = 0.000652027, No Iterations 6
ExecutionTime = 0.113268 s  ClockTime = 0 s

Time = 39s

smoothSolver:  Solving for Ux, Initial residual = 0.00623249, Final residual = 0.000447101, No Iterations 6
smoothSolver:  Solving for Uy, Initial residual = 0.0250314, Final residual = 0.00227514, No Iterations 5
Pressure gradient source: uncorrected Ubar = 1.00044, pressure gradient = -0.254888
GAMG:  Solving for p, Initial residual = 0.0629122, Final residual = 0.00373426, No Iterations 3
time step continuity errors : sum local = 2.34784e-05, global = -1.59072e-18, cumulative = 1.64964e-17
Pressure gradient source: uncorrected Ubar = 1.00005, pressure gradient = -0.100957
smoothSolver:  Solving for omega, Initial residual = 1.00044e-05, Final residual = 2.93362e-06, No Iterations 1
smoothSolver:  Solving for k, Initial residual = 0.00843398, Final residual = 0.00064315, No Iterations 6
ExecutionTime = 0.115732 s  ClockTime = 0 s

Time = 40s

smoothSolver:  Solving for Ux, Initial residual = 0.00629799, Final residual = 0.000458027, No Iterations 6
smoothSolver:  Solving for Uy, Initial residual = 0.0239907, Final residual = 0.00166847, No Iterations 6
Pressure gradient source: uncorrected Ubar = 1.00023, pressure gradient = -0.18966
GAMG:  Solving for p, Initial residual = 0.0573251, Final residual = 0.00342143, No Iterations 3
time step continuity errors : sum local = 2.12212e-05, global = -3.15434e-18, cumulative = 1.3342e-17
Pressure gradient source: uncorrected Ubar = 1.00002, pressure gradient = -0.10789
smoothSolver:  Solving for omega, Initial residual = 7.07882e-06, Final residual = 7.07882e-06, No Iterations 0
smoothSolver:  Solving for k, Initial residual = 0.008146, Final residual = 0.000641994, No Iterations 6
ExecutionTime = 0.118205 s  ClockTime = 0 s

Time = 41s

smoothSolver:  Solving for Ux, Initial residual = 0.00627146, Final residual = 0.000459348, No Iterations 6
smoothSolver:  Solving for Uy, Initial residual = 0.0248335, Final residual = 0.0017669, No Iterations 6
Pressure gradient source: uncorrected Ubar = 1.00029, pressure gradient = -0.221759
GAMG:  Solving for p, Initial residual = 0.0567209, Final residual = 0.00338765, No Iterations 3
time step continuity errors : sum local = 2.01785e-05, global = -4.76981e-18, cumulative = 8.57222e-18
Pressure gradient source: uncorrected Ubar = 1.00003, pressure gradient = -0.11813
smoothSolver:  Solving for omega, Initial residual = 7.09971e-06, Final residual = 7.09971e-06, No Iterations 0
smoothSolver:  Solving for k, Initial residual = 0.00815742, Final residual = 0.000639915, No Iterations 6
ExecutionTime = 0.120683 s  ClockTime = 0 s

Time = 42s

smoothSolver:  Solving for Ux, Initial residual = 0.00615121, Final residual = 0.000455739, No Iterations 6
smoothSolver:  Solving for Uy, Initial residual = 0.0260733, Final residual = 0.00183002, No Iterations 6
Pressure gradient source: uncorrected Ubar = 1.00032, pressure gradient = -0.240727
GAMG:  Solving for p, Initial residual = 0.0570187, Final residual = 0.00285884, No Iterations 3
time step continuity errors : sum local = 1.68523e-05, global = 5.021e-18, cumulative = 1.35932e-17
Pressure gradient source: uncorrected Ubar = 1.00003, pressure gradient = -0.129692
smoothSolver:  Solving for omega, Initial residual = 7.11464e-06, Final residual = 7.11464e-06, No Iterations 0
smoothSolver:  Solving for k, Initial residual = 0.00813003, Final residual = 0.000634575, No Iterations 6
ExecutionTime = 0.123177 s  ClockTime = 0 s

Time = 43s

smoothSolver:  Solving for Ux, Initial residual = 0.00583409, Final residual = 0.000443891, No Iterations 6
smoothSolver:  Solving for Uy, Initial residual = 0.0281903, Final residual = 0.00280309, No Iterations 5
Pressure gradient source: uncorrected Ubar = 1.00036, pressure gradient = -0.269783
GAMG:  Solving for p, Initial residual = 0.0578274, Final residual = 0.00316147, No Iterations 3
time step continuity errors : sum local = 1.82577e-05, global = -2.18916e-18, cumulative = 1.14041e-17
Pressure gradient source: uncorrected Ubar = 1.00004, pressure gradient = -0.143874
smoothSolver:  Solving for omega, Initial residual = 7.12271e-06, Final residual = 7.12271e-06, No Iterations 0
smoothSolver:  Solving for k, Initial residual = 0.00813738, Final residual = 0.000632869, No Iterations 6
ExecutionTime = 0.125636 s  ClockTime = 0 s

Time = 44s

smoothSolver:  Solving for Ux, Initial residual = 0.00570964, Final residual = 0.000443248, No Iterations 6
smoothSolver:  Solving for Uy, Initial residual = 0.0271621, Final residual = 0.00199583, No Iterations 6
Pressure gradient source: uncorrected Ubar = 1.00027, pressure gradient = -0.246529
GAMG:  Solving for p, Initial residual = 0.0561139, Final residual = 0.00283782, No Iterations 3
time step continuity errors : sum local = 1.66201e-05, global = 4.22471e-19, cumulative = 1.18265e-17
Pressure gradient source: uncorrected Ubar = 1.00002, pressure gradient = -0.15337
smoothSolver:  Solving for omega, Initial residual = 7.11676e-06, Final residual = 7.11676e-06, No Iterations 0
smoothSolver:  Solving for k, Initial residual = 0.00815519, Final residual = 0.000629243, No Iterations 6
ExecutionTime = 0.128107 s  ClockTime = 0 s

Time = 45s

smoothSolver:  Solving for Ux, Initial residual = 0.005707, Final residual = 0.000446411, No Iterations 6
smoothSolver:  Solving for Uy, Initial residual = 0.0283205, Final residual = 0.00216646, No Iterations 6
Pressure gradient source: uncorrected Ubar = 1.00022, pressure gradient = -0.238661
GAMG:  Solving for p, Initial residual = 0.0519397, Final residual = 0.00279985, No Iterations 3
time step continuity errors : sum local = 1.62172e-05, global = -9.24875e-18, cumulative = 2.57778e-18
Pressure gradient source: uncorrected Ubar = 1.00002, pressure gradient = -0.160676
smoothSolver:  Solving for omega, Initial residual = 7.10139e-06, Final residual = 7.10139e-06, No Iterations 0
smoothSolver:  Solving for k, Initial residual = 0.00793711, Final residual = 0.00062415, No Iterations 6
ExecutionTime = 0.13058 s  ClockTime = 0 s

Time = 46s

smoothSolver:  Solving for Ux, Initial residual = 0.00567465, Final residual = 0.000446769, No Iterations 6
smoothSolver:  Solving for Uy, Initial residual = 0.0286608, Final residual = 0.00224732, No Iterations 6
Pressure gradient source: uncorrected Ubar = 1.00022, pressure gradient = -0.24344
GAMG:  Solving for p, Initial residual = 0.0518086, Final residual = 0.00294998, No Iterations 3
time step continuity errors : sum local = 1.66379e-05, global = 3.32783e-18, cumulative = 5.90561e-18
Pressure gradient source: uncorrected Ubar = 1.00002, pressure gradient = -0.167761
smoothSolver:  Solving for omega, Initial residual = 7.08084e-06, Final residual = 7.08084e-06, No Iterations 0
smoothSolver:  Solving for k, Initial residual = 0.00784217, Final residual = 0.000614998, No Iterations 6
ExecutionTime = 0.133098 s  ClockTime = 0 s

Time = 47s

smoothSolver:  Solving for Ux, Initial residual = 0.00553049, Final residual = 0.000440858, No Iterations 6
smoothSolver:  Solving for Uy, Initial residual = 0.0297784, Final residual = 0.00226891, No Iterations 6
Pressure gradient source: uncorrected Ubar = 1.00024, pressure gradient = -0.256697
GAMG:  Solving for p, Initial residual = 0.0532749, Final residual = 0.00325411, No Iterations 3
time step continuity errors : sum local = 1.80568e-05, global = 7.99906e-18, cumulative = 1.39047e-17
Pressure gradient source: uncorrected Ubar = 1.00002, pressure gradient = -0.175862
smoothSolver:  Solving for omega, Initial residual = 7.08401e-06, Final residual = 7.08401e-06, No Iterations 0
smoothSolver:  Solving for k, Initial residual = 0.00772904, Final residual = 0.000603671, No Iterations 6
ExecutionTime = 0.135558 s  ClockTime = 0 s

Time = 48s

smoothSolver:  Solving for Ux, Initial residual = 0.00523872, Final residual = 0.000428258, No Iterations 6
smoothSolver:  Solving for Uy, Initial residual = 0.0310223, Final residual = 0.00229106, No Iterations 6
Pressure gradient source: uncorrected Ubar = 1.00027, pressure gradient = -0.274701
GAMG:  Solving for p, Initial residual = 0.0543137, Final residual = 0.00330802, No Iterations 3
time step continuity errors : sum local = 1.84311e-05, global = -3.01418e-18, cumulative = 1.08905e-17
Pressure gradient source: uncorrected Ubar = 1.00003, pressure gradient = -0.185577
smoothSolver:  Solving for omega, Initial residual = 7.08409e-06, Final residual = 7.08409e-06, No Iterations 0
smoothSolver:  Solving for k, Initial residual = 0.00761, Final residual = 0.000593791, No Iterations 6
ExecutionTime = 0.138087 s  ClockTime = 0 s

Time = 49s

smoothSolver:  Solving for Ux, Initial residual = 0.00515424, Final residual = 0.000427169, No Iterations 6
smoothSolver:  Solving for Uy, Initial residual = 0.0289313, Final residual = 0.00228021, No Iterations 6
Pressure gradient source: uncorrected Ubar = 1.00018, pressure gradient = -0.252842
GAMG:  Solving for p, Initial residual = 0.0537005, Final residual = 0.00313592, No Iterations 3
time step continuity errors : sum local = 1.74727e-05, global = 6.56848e-19, cumulative = 1.15473e-17
Pressure gradient source: uncorrected Ubar = 1.00002, pressure gradient = -0.191292
smoothSolver:  Solving for omega, Initial residual = 7.07221e-06, Final residual = 7.07221e-06, No Iterations 0
smoothSolver:  Solving for k, Initial residual = 0.00755764, Final residual = 0.000590114, No Iterations 6
ExecutionTime = 0.140557 s  ClockTime = 0 s

Time = 50s

smoothSolver:  Solving for Ux, Initial residual = 0.00508021, Final residual = 0.000425562, No Iterations 6
smoothSolver:  Solving for Uy, Initial residual = 0.0284514, Final residual = 0.00234002, No Iterations 6
Pressure gradient source: uncorrected Ubar = 1.00017, pressure gradient = -0.251959
GAMG:  Solving for p, Initial residual = 0.0499438, Final residual = 0.00347468, No Iterations 3
time step continuity errors : sum local = 1.86545e-05, global = -5.4676e-19, cumulative = 1.10006e-17
Pressure gradient source: uncorrected Ubar = 1.00001, pressure gradient = -0.196241
smoothSolver:  Solving for omega, Initial residual = 6.98721e-06, Final residual = 6.98721e-06, No Iterations 0
smoothSolver:  Solving for k, Initial residual = 0.00734688, Final residual = 0.000579125, No Iterations 6
ExecutionTime = 0.143042 s  ClockTime = 0 s

Time = 51s

smoothSolver:  Solving for Ux, Initial residual = 0.00504757, Final residual = 0.000424926, No Iterations 6
smoothSolver:  Solving for Uy, Initial residual = 0.0280534, Final residual = 0.00232814, No Iterations 6
Pressure gradient source: uncorrected Ubar = 1.00014, pressure gradient = -0.246282
GAMG:  Solving for p, Initial residual = 0.0477932, Final residual = 0.00369619, No Iterations 3
time step continuity errors : sum local = 1.8592e-05, global = 6.5933e-18, cumulative = 1.75939e-17
Pressure gradient source: uncorrected Ubar = 1.00001, pressure gradient = -0.199869
smoothSolver:  Solving for omega, Initial residual = 6.89886e-06, Final residual = 6.89886e-06, No Iterations 0
smoothSolver:  Solving for k, Initial residual = 0.00722017, Final residual = 0.000569425, No Iterations 6
ExecutionTime = 0.145516 s  ClockTime = 0 s

Time = 52s

smoothSolver:  Solving for Ux, Initial residual = 0.00497483, Final residual = 0.000420874, No Iterations 6
smoothSolver:  Solving for Uy, Initial residual = 0.0282178, Final residual = 0.00230607, No Iterations 6
Pressure gradient source: uncorrected Ubar = 1.00014, pressure gradient = -0.247993
GAMG:  Solving for p, Initial residual = 0.0488335, Final residual = 0.00448993, No Iterations 3
time step continuity errors : sum local = 2.09114e-05, global = -3.40634e-18, cumulative = 1.41875e-17
Pressure gradient source: uncorrected Ubar = 1.00001, pressure gradient = -0.20337
smoothSolver:  Solving for omega, Initial residual = 6.87111e-06, Final residual = 6.87111e-06, No Iterations 0
smoothSolver:  Solving for k, Initial residual = 0.00707519, Final residual = 0.000554495, No Iterations 6
ExecutionTime = 0.148024 s  ClockTime = 0 s

Time = 53s

smoothSolver:  Solving for Ux, Initial residual = 0.00481789, Final residual = 0.000412118, No Iterations 6
smoothSolver:  Solving for Uy, Initial residual = 0.0280765, Final residual = 0.0022551, No Iterations 6
Pressure gradient source: uncorrected Ubar = 1.00015, pressure gradient = -0.254705
GAMG:  Solving for p, Initial residual = 0.0508584, Final residual = 0.00464923, No Iterations 5
time step continuity errors : sum local = 2.12921e-05, global = -1.85543e-18, cumulative = 1.23321e-17
Pressure gradient source: uncorrected Ubar = 1.00001, pressure gradient = -0.207488
smoothSolver:  Solving for omega, Initial residual = 6.77948e-06, Final residual = 6.77948e-06, No Iterations 0
smoothSolver:  Solving for k, Initial residual = 0.00691776, Final residual = 0.000542749, No Iterations 6
ExecutionTime = 0.150591 s  ClockTime = 0 s

Time = 54s

smoothSolver:  Solving for Ux, Initial residual = 0.00458556, Final residual = 0.000400439, No Iterations 6
smoothSolver:  Solving for Uy, Initial residual = 0.0274892, Final residual = 0.00219728, No Iterations 6
Pressure gradient source: uncorrected Ubar = 1.00016, pressure gradient = -0.260885
GAMG:  Solving for p, Initial residual = 0.0535783, Final residual = 0.00518805, No Iterations 4
time step continuity errors : sum local = 2.32292e-05, global = -2.08201e-18, cumulative = 1.02501e-17
Pressure gradient source: uncorrected Ubar = 1.00001, pressure gradient = -0.212113
smoothSolver:  Solving for omega, Initial residual = 6.67515e-06, Final residual = 6.67515e-06, No Iterations 0
smoothSolver:  Solving for k, Initial residual = 0.0067571, Final residual = 0.00052894, No Iterations 6
ExecutionTime = 0.15314 s  ClockTime = 0 s

Time = 55s

smoothSolver:  Solving for Ux, Initial residual = 0.00451368, Final residual = 0.000397664, No Iterations 6
smoothSolver:  Solving for Uy, Initial residual = 0.0254005, Final residual = 0.00214371, No Iterations 6
Pressure gradient source: uncorrected Ubar = 1.00009, pressure gradient = -0.242966
GAMG:  Solving for p, Initial residual = 0.0504574, Final residual = 0.00376172, No Iterations 3
time step continuity errors : sum local = 1.6947e-05, global = -1.31647e-18, cumulative = 8.93363e-18
Pressure gradient source: uncorrected Ubar = 1.00001, pressure gradient = -0.213831
smoothSolver:  Solving for omega, Initial residual = 6.66046e-06, Final residual = 6.66046e-06, No Iterations 0
smoothSolver:  Solving for k, Initial residual = 0.00663563, Final residual = 0.000520671, No Iterations 6
ExecutionTime = 0.155661 s  ClockTime = 0 s

Time = 56s

smoothSolver:  Solving for Ux, Initial residual = 0.00441805, Final residual = 0.000392544, No Iterations 6
smoothSolver:  Solving for Uy, Initial residual = 0.0246185, Final residual = 0.0021288, No Iterations 6
Pressure gradient source: uncorrected Ubar = 1.0001, pressure gradient = -0.246272
GAMG:  Solving for p, Initial residual = 0.0454567, Final residual = 0.00297958, No Iterations 3
time step continuity errors : sum local = 1.31506e-05, global = -2.37169e-20, cumulative = 8.90992e-18
Pressure gradient source: uncorrected Ubar = 1.00001, pressure gradient = -0.215869
smoothSolver:  Solving for omega, Initial residual = 6.61839e-06, Final residual = 6.61839e-06, No Iterations 0
smoothSolver:  Solving for k, Initial residual = 0.00641981, Final residual = 0.000507515, No Iterations 6
ExecutionTime = 0.158135 s  ClockTime = 0 s

Time = 57s

smoothSolver:  Solving for Ux, Initial residual = 0.00432969, Final residual = 0.000386435, No Iterations 6
smoothSolver:  Solving for Uy, Initial residual = 0.0245215, Final residual = 0.00212909, No Iterations 6
Pressure gradient source: uncorrected Ubar = 1.00008, pressure gradient = -0.243182
GAMG:  Solving for p, Initial residual = 0.0431482, Final residual = 0.00320414, No Iterations 3
time step continuity errors : sum local = 1.3285e-05, global = -1.79105e-18, cumulative = 7.11886e-18
Pressure gradient source: uncorrected Ubar = 1, pressure gradient = -0.217307
smoothSolver:  Solving for omega, Initial residual = 6.58302e-06, Final residual = 6.58302e-06, No Iterations 0
smoothSolver:  Solving for k, Initial residual = 0.00624231, Final residual = 0.000496156, No Iterations 6
ExecutionTime = 0.160602 s  ClockTime = 0 s

Time = 58s

smoothSolver:  Solving for Ux, Initial residual = 0.00426227, Final residual = 0.000381212, No Iterations 6
smoothSolver:  Solving for Uy, Initial residual = 0.0242189, Final residual = 0.00207819, No Iterations 6
Pressure gradient source: uncorrected Ubar = 1.00006, pressure gradient = -0.236762
GAMG:  Solving for p, Initial residual = 0.0416554, Final residual = 0.00379982, No Iterations 3
time step continuity errors : sum local = 1.48802e-05, global = 5.67247e-18, cumulative = 1.27913e-17
Pressure gradient source: uncorrected Ubar = 1, pressure gradient = -0.217759
smoothSolver:  Solving for omega, Initial residual = 6.55697e-06, Final residual = 6.55697e-06, No Iterations 0
smoothSolver:  Solving for k, Initial residual = 0.00607534, Final residual = 0.000481193, No Iterations 6
ExecutionTime = 0.1631 s  ClockTime = 0 s

Time = 59s

smoothSolver:  Solving for Ux, Initial residual = 0.00418172, Final residual = 0.000374684, No Iterations 6
smoothSolver:  Solving for Uy, Initial residual = 0.0238184, Final residual = 0.00201943, No Iterations 6
Pressure gradient source: uncorrected Ubar = 1.00005, pressure gradient = -0.23454
GAMG:  Solving for p, Initial residual = 0.0426102, Final residual = 0.0036209, No Iterations 4
time step continuity errors : sum local = 1.35355e-05, global = 1.24754e-17, cumulative = 2.52667e-17
Pressure gradient source: uncorrected Ubar = 1, pressure gradient = -0.21794
smoothSolver:  Solving for omega, Initial residual = 6.53084e-06, Final residual = 6.53084e-06, No Iterations 0
smoothSolver:  Solving for k, Initial residual = 0.00590358, Final residual = 0.000469382, No Iterations 6
ExecutionTime = 0.165612 s  ClockTime = 0 s

Time = 60s

smoothSolver:  Solving for Ux, Initial residual = 0.00406377, Final residual = 0.000366098, No Iterations 6
smoothSolver:  Solving for Uy, Initial residual = 0.0232576, Final residual = 0.00195791, No Iterations 6
Pressure gradient source: uncorrected Ubar = 1.00005, pressure gradient = -0.234929
GAMG:  Solving for p, Initial residual = 0.0435266, Final residual = 0.0042649, No Iterations 4
time step continuity errors : sum local = 1.54812e-05, global = 1.73377e-19, cumulative = 2.54401e-17
Pressure gradient source: uncorrected Ubar = 1, pressure gradient = -0.218265
smoothSolver:  Solving for omega, Initial residual = 6.50353e-06, Final residual = 6.50353e-06, No Iterations 0
smoothSolver:  Solving for k, Initial residual = 0.00573404, Final residual = 0.000454513, No Iterations 6
ExecutionTime = 0.168126 s  ClockTime = 0 s

Time = 61s

smoothSolver:  Solving for Ux, Initial residual = 0.00389231, Final residual = 0.000355324, No Iterations 6
smoothSolver:  Solving for Uy, Initial residual = 0.0226433, Final residual = 0.00191487, No Iterations 6
Pressure gradient source: uncorrected Ubar = 1.00006, pressure gradient = -0.237143
GAMG:  Solving for p, Initial residual = 0.0462437, Final residual = 0.00378278, No Iterations 6
time step continuity errors : sum local = 1.36299e-05, global = -6.06751e-18, cumulative = 1.93726e-17
Pressure gradient source: uncorrected Ubar = 1, pressure gradient = -0.218991
smoothSolver:  Solving for omega, Initial residual = 6.47822e-06, Final residual = 6.47822e-06, No Iterations 0
smoothSolver:  Solving for k, Initial residual = 0.005566, Final residual = 0.00043779, No Iterations 6
ExecutionTime = 0.170766 s  ClockTime = 0 s

Time = 62s

smoothSolver:  Solving for Ux, Initial residual = 0.00382037, Final residual = 0.000350668, No Iterations 6
smoothSolver:  Solving for Uy, Initial residual = 0.0208278, Final residual = 0.00178279, No Iterations 6
Pressure gradient source: uncorrected Ubar = 1.00002, pressure gradient = -0.22456
GAMG:  Solving for p, Initial residual = 0.0484835, Final residual = 0.00375499, No Iterations 4
time step continuity errors : sum local = 1.29824e-05, global = -2.00514e-18, cumulative = 1.73675e-17
Pressure gradient source: uncorrected Ubar = 0.999997, pressure gradient = -0.217988
smoothSolver:  Solving for omega, Initial residual = 6.45817e-06, Final residual = 6.45817e-06, No Iterations 0
smoothSolver:  Solving for k, Initial residual = 0.00538441, Final residual = 0.000427999, No Iterations 6
ExecutionTime = 0.173305 s  ClockTime = 0 s

Time = 63s

smoothSolver:  Solving for Ux, Initial residual = 0.00376052, Final residual = 0.000346393, No Iterations 6
smoothSolver:  Solving for Uy, Initial residual = 0.0203286, Final residual = 0.00177874, No Iterations 6
Pressure gradient source: uncorrected Ubar = 1.00001, pressure gradient = -0.222391
GAMG:  Solving for p, Initial residual = 0.0413354, Final residual = 0.00205836, No Iterations 4
time step continuity errors : sum local = 6.70818e-06, global = 9.07353e-18, cumulative = 2.6441e-17
Pressure gradient source: uncorrected Ubar = 0.999996, pressure gradient = -0.216897
smoothSolver:  Solving for omega, Initial residual = 6.4402e-06, Final residual = 6.4402e-06, No Iterations 0
smoothSolver:  Solving for k, Initial residual = 0.00521977, Final residual = 0.000414965, No Iterations 6
ExecutionTime = 0.175818 s  ClockTime = 0 s

Time = 64s

smoothSolver:  Solving for Ux, Initial residual = 0.00368531, Final residual = 0.000340832, No Iterations 6
smoothSolver:  Solving for Uy, Initial residual = 0.0201117, Final residual = 0.00176493, No Iterations 6
Pressure gradient source: uncorrected Ubar = 1.00002, pressure gradient = -0.222072
GAMG:  Solving for p, Initial residual = 0.0385869, Final residual = 0.00280383, No Iterations 4
time step continuity errors : sum local = 8.28491e-06, global = -3.44278e-18, cumulative = 2.29982e-17
Pressure gradient source: uncorrected Ubar = 0.999997, pressure gradient = -0.215976
smoothSolver:  Solving for omega, Initial residual = 6.42236e-06, Final residual = 6.42236e-06, No Iterations 0
smoothSolver:  Solving for k, Initial residual = 0.00505949, Final residual = 0.000406483, No Iterations 6
ExecutionTime = 0.178338 s  ClockTime = 0 s

Time = 65s

smoothSolver:  Solving for Ux, Initial residual = 0.00359998, Final residual = 0.000334049, No Iterations 6
smoothSolver:  Solving for Uy, Initial residual = 0.0197273, Final residual = 0.00174041, No Iterations 6
Pressure gradient source: uncorrected Ubar = 1.00002, pressure gradient = -0.220967
GAMG:  Solving for p, Initial residual = 0.036612, Final residual = 0.00326594, No Iterations 5
time step continuity errors : sum local = 9.52698e-06, global = -5.18575e-18, cumulative = 1.78125e-17
Pressure gradient source: uncorrected Ubar = 0.999997, pressure gradient = -0.21509
smoothSolver:  Solving for omega, Initial residual = 6.40293e-06, Final residual = 6.40293e-06, No Iterations 0
smoothSolver:  Solving for k, Initial residual = 0.00489488, Final residual = 0.000392256, No Iterations 6
ExecutionTime = 0.180918 s  ClockTime = 0 s

Time = 66s

smoothSolver:  Solving for Ux, Initial residual = 0.00350451, Final residual = 0.000326169, No Iterations 6
smoothSolver:  Solving for Uy, Initial residual = 0.0190921, Final residual = 0.00167712, No Iterations 6
Pressure gradient source: uncorrected Ubar = 1.00001, pressure gradient = -0.219404
GAMG:  Solving for p, Initial residual = 0.0346766, Final residual = 0.00325196, No Iterations 6
time step continuity errors : sum local = 9.30925e-06, global = 4.58499e-18, cumulative = 2.23975e-17
Pressure gradient source: uncorrected Ubar = 0.999997, pressure gradient = -0.214173
smoothSolver:  Solving for omega, Initial residual = 6.38161e-06, Final residual = 6.38161e-06, No Iterations 0
smoothSolver:  Solving for k, Initial residual = 0.00473206, Final residual = 0.000380777, No Iterations 6
ExecutionTime = 0.183552 s  ClockTime = 0 s

Time = 67s

smoothSolver:  Solving for Ux, Initial residual = 0.00339817, Final residual = 0.000317505, No Iterations 6
smoothSolver:  Solving for Uy, Initial residual = 0.0183888, Final residual = 0.00161596, No Iterations 6
Pressure gradient source: uncorrected Ubar = 1.00002, pressure gradient = -0.218599
GAMG:  Solving for p, Initial residual = 0.0342899, Final residual = 0.00309336, No Iterations 7
time step continuity errors : sum local = 9.1763e-06, global = 5.50254e-19, cumulative = 2.29477e-17
Pressure gradient source: uncorrected Ubar = 0.999997, pressure gradient = -0.213332
smoothSolver:  Solving for omega, Initial residual = 6.36344e-06, Final residual = 6.36344e-06, No Iterations 0
smoothSolver:  Solving for k, Initial residual = 0.00456592, Final residual = 0.000367155, No Iterations 6
ExecutionTime = 0.186233 s  ClockTime = 0 s

Time = 68s

smoothSolver:  Solving for Ux, Initial residual = 0.00329207, Final residual = 0.000308627, No Iterations 6
smoothSolver:  Solving for Uy, Initial residual = 0.0177976, Final residual = 0.00156904, No Iterations 6
Pressure gradient source: uncorrected Ubar = 1.00001, pressure gradient = -0.216984
GAMG:  Solving for p, Initial residual = 0.0337109, Final residual = 0.00253637, No Iterations 7
time step continuity errors : sum local = 7.42654e-06, global = 7.36919e-19, cumulative = 2.36846e-17
Pressure gradient source: uncorrected Ubar = 0.999997, pressure gradient = -0.212445
smoothSolver:  Solving for omega, Initial residual = 6.34786e-06, Final residual = 6.34786e-06, No Iterations 0
smoothSolver:  Solving for k, Initial residual = 0.00440052, Final residual = 0.000355169, No Iterations 6
ExecutionTime = 0.188909 s  ClockTime = 0 s

Time = 69s

smoothSolver:  Solving for Ux, Initial residual = 0.0031957, Final residual = 0.000300247, No Iterations 6
smoothSolver:  Solving for Uy, Initial residual = 0.0173024, Final residual = 0.00152738, No Iterations 6
Pressure gradient source: uncorrected Ubar = 1.00001, pressure gradient = -0.214317
GAMG:  Solving for p, Initial residual = 0.0339113, Final residual = 0.00316764, No Iterations 5
time step continuity errors : sum local = 8.58576e-06, global = 9.78323e-19, cumulative = 2.4663e-17
Pressure gradient source: uncorrected Ubar = 0.999996, pressure gradient = -0.21137
smoothSolver:  Solving for omega, Initial residual = 6.33314e-06, Final residual = 6.33314e-06, No Iterations 0
smoothSolver:  Solving for k, Initial residual = 0.00423781, Final residual = 0.000341622, No Iterations 6
ExecutionTime = 0.191512 s  ClockTime = 0 s

Time = 70s

smoothSolver:  Solving for Ux, Initial residual = 0.00309949, Final residual = 0.000292095, No Iterations 6
smoothSolver:  Solving for Uy, Initial residual = 0.0170299, Final residual = 0.00150415, No Iterations 6
Pressure gradient source: uncorrected Ubar = 1, pressure gradient = -0.212524
GAMG:  Solving for p, Initial residual = 0.0350462, Final residual = 0.00246063, No Iterations 4
time step continuity errors : sum local = 6.1935e-06, global = -6.00745e-18, cumulative = 1.86555e-17
Pressure gradient source: uncorrected Ubar = 0.999996, pressure gradient = -0.210258
smoothSolver:  Solving for omega, Initial residual = 6.32142e-06, Final residual = 6.32142e-06, No Iterations 0
smoothSolver:  Solving for k, Initial residual = 0.0040869, Final residual = 0.00032896, No Iterations 6
ExecutionTime = 0.194029 s  ClockTime = 0 s

Time = 71s

smoothSolver:  Solving for Ux, Initial residual = 0.00303305, Final residual = 0.000286397, No Iterations 6
smoothSolver:  Solving for Uy, Initial residual = 0.0163501, Final residual = 0.001446, No Iterations 6
Pressure gradient source: uncorrected Ubar = 0.99999, pressure gradient = -0.207422
GAMG:  Solving for p, Initial residual = 0.0390894, Final residual = 0.00375577, No Iterations 9
time step continuity errors : sum local = 8.52117e-06, global = 2.20918e-18, cumulative = 2.08647e-17
Pressure gradient source: uncorrected Ubar = 0.999994, pressure gradient = -0.208646
smoothSolver:  Solving for omega, Initial residual = 6.31594e-06, Final residual = 6.31594e-06, No Iterations 0
smoothSolver:  Solving for k, Initial residual = 0.00395125, Final residual = 0.000316734, No Iterations 6
ExecutionTime = 0.196783 s  ClockTime = 0 s

Time = 72s

smoothSolver:  Solving for Ux, Initial residual = 0.00300853, Final residual = 0.000283578, No Iterations 6
smoothSolver:  Solving for Uy, Initial residual = 0.0170762, Final residual = 0.00147214, No Iterations 6
Pressure gradient source: uncorrected Ubar = 0.999974, pressure gradient = -0.201574
GAMG:  Solving for p, Initial residual = 0.0394779, Final residual = 0.00374559, No Iterations 12
time step continuity errors : sum local = 8.91984e-06, global = 2.47821e-18, cumulative = 2.33429e-17
Pressure gradient source: uncorrected Ubar = 0.999992, pressure gradient = -0.206487
smoothSolver:  Solving for omega, Initial residual = 6.31095e-06, Final residual = 6.31095e-06, No Iterations 0
smoothSolver:  Solving for k, Initial residual = 0.00382982, Final residual = 0.000306846, No Iterations 6
ExecutionTime = 0.199694 s  ClockTime = 0 s

Time = 73s

smoothSolver:  Solving for Ux, Initial residual = 0.00297585, Final residual = 0.000280433, No Iterations 6
smoothSolver:  Solving for Uy, Initial residual = 0.0179468, Final residual = 0.00147843, No Iterations 6
Pressure gradient source: uncorrected Ubar = 0.999978, pressure gradient = -0.200512
GAMG:  Solving for p, Initial residual = 0.0375604, Final residual = 0.00344144, No Iterations 10
time step continuity errors : sum local = 8.20919e-06, global = -9.11513e-18, cumulative = 1.42278e-17
Pressure gradient source: uncorrected Ubar = 0.999993, pressure gradient = -0.204515
smoothSolver:  Solving for omega, Initial residual = 6.30218e-06, Final residual = 6.30218e-06, No Iterations 0
smoothSolver:  Solving for k, Initial residual = 0.00370739, Final residual = 0.000297105, No Iterations 6
ExecutionTime = 0.202515 s  ClockTime = 0 s

Time = 74s

smoothSolver:  Solving for Ux, Initial residual = 0.00293665, Final residual = 0.00027686, No Iterations 6
smoothSolver:  Solving for Uy, Initial residual = 0.018197, Final residual = 0.00146893, No Iterations 6
Pressure gradient source: uncorrected Ubar = 0.999981, pressure gradient = -0.199195
GAMG:  Solving for p, Initial residual = 0.033451, Final residual = 0.00281735, No Iterations 6
time step continuity errors : sum local = 6.36649e-06, global = 4.55082e-19, cumulative = 1.46828e-17
Pressure gradient source: uncorrected Ubar = 0.999993, pressure gradient = -0.202668
smoothSolver:  Solving for omega, Initial residual = 6.29047e-06, Final residual = 6.29047e-06, No Iterations 0
smoothSolver:  Solving for k, Initial residual = 0.00358277, Final residual = 0.000286161, No Iterations 6
ExecutionTime = 0.20516 s  ClockTime = 0 s

Time = 75s

smoothSolver:  Solving for Ux, Initial residual = 0.00289181, Final residual = 0.00027278, No Iterations 6
smoothSolver:  Solving for Uy, Initial residual = 0.0181485, Final residual = 0.00147869, No Iterations 6
Pressure gradient source: uncorrected Ubar = 0.999983, pressure gradient = -0.19793
GAMG:  Solving for p, Initial residual = 0.0315215, Final residual = 0.00306067, No Iterations 8
time step continuity errors : sum local = 7.02335e-06, global = 4.49848e-18, cumulative = 1.91813e-17
Pressure gradient source: uncorrected Ubar = 0.999994, pressure gradient = -0.200934
smoothSolver:  Solving for omega, Initial residual = 6.27799e-06, Final residual = 6.27799e-06, No Iterations 0
smoothSolver:  Solving for k, Initial residual = 0.00345671, Final residual = 0.000276671, No Iterations 6
ExecutionTime = 0.207862 s  ClockTime = 0 s

Time = 76s

smoothSolver:  Solving for Ux, Initial residual = 0.00284146, Final residual = 0.000268199, No Iterations 6
smoothSolver:  Solving for Uy, Initial residual = 0.0177134, Final residual = 0.0014579, No Iterations 6
Pressure gradient source: uncorrected Ubar = 0.999984, pressure gradient = -0.196538
GAMG:  Solving for p, Initial residual = 0.0330661, Final residual = 0.00308155, No Iterations 8
time step continuity errors : sum local = 7.23114e-06, global = -1.0927e-17, cumulative = 8.25428e-18
Pressure gradient source: uncorrected Ubar = 0.999994, pressure gradient = -0.199279
smoothSolver:  Solving for omega, Initial residual = 6.26655e-06, Final residual = 6.26655e-06, No Iterations 0
smoothSolver:  Solving for k, Initial residual = 0.00333154, Final residual = 0.000266565, No Iterations 6
ExecutionTime = 0.210584 s  ClockTime = 0 s

Time = 77s

smoothSolver:  Solving for Ux, Initial residual = 0.00278533, Final residual = 0.000263278, No Iterations 6
smoothSolver:  Solving for Uy, Initial residual = 0.0170507, Final residual = 0.00141601, No Iterations 6
Pressure gradient source: uncorrected Ubar = 0.999986, pressure gradient = -0.195537
GAMG:  Solving for p, Initial residual = 0.0318582, Final residual = 0.00258672, No Iterations 6
time step continuity errors : sum local = 5.88858e-06, global = 5.51249e-18, cumulative = 1.37668e-17
Pressure gradient source: uncorrected Ubar = 0.999994, pressure gradient = -0.197746
smoothSolver:  Solving for omega, Initial residual = 6.25791e-06, Final residual = 6.25791e-06, No Iterations 0
smoothSolver:  Solving for k, Initial residual = 0.00321004, Final residual = 0.000256515, No Iterations 6
ExecutionTime = 0.213218 s  ClockTime = 0 s

Time = 78s

smoothSolver:  Solving for Ux, Initial residual = 0.00272677, Final residual = 0.000258081, No Iterations 6
smoothSolver:  Solving for Uy, Initial residual = 0.0164488, Final residual = 0.00137571, No Iterations 6
Pressure gradient source: uncorrected Ubar = 0.999988, pressure gradient = -0.194629
GAMG:  Solving for p, Initial residual = 0.030702, Final residual = 0.00269683, No Iterations 6
time step continuity errors : sum local = 5.67308e-06, global = -5.87259e-18, cumulative = 7.89418e-18
Pressure gradient source: uncorrected Ubar = 0.999995, pressure gradient = -0.196331
smoothSolver:  Solving for omega, Initial residual = 6.25119e-06, Final residual = 6.25119e-06, No Iterations 0
smoothSolver:  Solving for k, Initial residual = 0.00309207, Final residual = 0.000246691, No Iterations 6
ExecutionTime = 0.215815 s  ClockTime = 0 s

Time = 79s

smoothSolver:  Solving for Ux, Initial residual = 0.00266698, Final residual = 0.000252658, No Iterations 6
smoothSolver:  Solving for Uy, Initial residual = 0.015866, Final residual = 0.00134279, No Iterations 6
Pressure gradient source: uncorrected Ubar = 0.999991, pressure gradient = -0.193811
GAMG:  Solving for p, Initial residual = 0.0293489, Final residual = 0.00290616, No Iterations 8
time step continuity errors : sum local = 5.73887e-06, global = -2.78418e-18, cumulative = 5.11e-18
Pressure gradient source: uncorrected Ubar = 0.999995, pressure gradient = -0.19503
smoothSolver:  Solving for omega, Initial residual = 6.24551e-06, Final residual = 6.24551e-06, No Iterations 0
smoothSolver:  Solving for k, Initial residual = 0.0029752, Final residual = 0.000236881, No Iterations 6
ExecutionTime = 0.218558 s  ClockTime = 0 s

Time = 80s

smoothSolver:  Solving for Ux, Initial residual = 0.0026042, Final residual = 0.000247058, No Iterations 6
smoothSolver:  Solving for Uy, Initial residual = 0.0153303, Final residual = 0.00131692, No Iterations 6
Pressure gradient source: uncorrected Ubar = 0.999993, pressure gradient = -0.193083
GAMG:  Solving for p, Initial residual = 0.0277726, Final residual = 0.0026731, No Iterations 10
time step continuity errors : sum local = 4.90133e-06, global = -4.27996e-18, cumulative = 8.30042e-19
Pressure gradient source: uncorrected Ubar = 0.999996, pressure gradient = -0.19384
smoothSolver:  Solving for omega, Initial residual = 6.23901e-06, Final residual = 6.23901e-06, No Iterations 0
smoothSolver:  Solving for k, Initial residual = 0.00285974, Final residual = 0.000227406, No Iterations 6
ExecutionTime = 0.221399 s  ClockTime = 0 s

Time = 81s

smoothSolver:  Solving for Ux, Initial residual = 0.00253819, Final residual = 0.000241318, No Iterations 6
smoothSolver:  Solving for Uy, Initial residual = 0.0148503, Final residual = 0.00130102, No Iterations 6
Pressure gradient source: uncorrected Ubar = 0.999995, pressure gradient = -0.192482
GAMG:  Solving for p, Initial residual = 0.0267241, Final residual = 0.00257967, No Iterations 10
time step continuity errors : sum local = 4.39089e-06, global = 5.63542e-19, cumulative = 1.39358e-18
Pressure gradient source: uncorrected Ubar = 0.999996, pressure gradient = -0.192763
smoothSolver:  Solving for omega, Initial residual = 6.22998e-06, Final residual = 6.22998e-06, No Iterations 0
smoothSolver:  Solving for k, Initial residual = 0.00275098, Final residual = 0.000217662, No Iterations 6
ExecutionTime = 0.224205 s  ClockTime = 0 s

Time = 82s

smoothSolver:  Solving for Ux, Initial residual = 0.00246918, Final residual = 0.000235522, No Iterations 6
smoothSolver:  Solving for Uy, Initial residual = 0.0143824, Final residual = 0.00128971, No Iterations 6
Pressure gradient source: uncorrected Ubar = 0.999997, pressure gradient = -0.19192
GAMG:  Solving for p, Initial residual = 0.0267801, Final residual = 0.00250145, No Iterations 10
time step continuity errors : sum local = 3.96966e-06, global = 7.01931e-18, cumulative = 8.4129e-18
Pressure gradient source: uncorrected Ubar = 0.999996, pressure gradient = -0.191789
smoothSolver:  Solving for omega, Initial residual = 6.21993e-06, Final residual = 6.21993e-06, No Iterations 0
smoothSolver:  Solving for k, Initial residual = 0.00264428, Final residual = 0.000207764, No Iterations 6
ExecutionTime = 0.227029 s  ClockTime = 0 s

Time = 83s

smoothSolver:  Solving for Ux, Initial residual = 0.00240916, Final residual = 0.000230391, No Iterations 6
smoothSolver:  Solving for Uy, Initial residual = 0.0143267, Final residual = 0.00123204, No Iterations 6
Pressure gradient source: uncorrected Ubar = 0.999994, pressure gradient = -0.190239
GAMG:  Solving for p, Initial residual = 0.0315886, Final residual = 0.0029859, No Iterations 7
time step continuity errors : sum local = 4.11027e-06, global = 1.16965e-17, cumulative = 2.01094e-17
Pressure gradient source: uncorrected Ubar = 0.999996, pressure gradient = -0.190747
smoothSolver:  Solving for omega, Initial residual = 6.20921e-06, Final residual = 6.20921e-06, No Iterations 0
smoothSolver:  Solving for k, Initial residual = 0.00254683, Final residual = 0.000199259, No Iterations 6
ExecutionTime = 0.229698 s  ClockTime = 0 s

Time = 84s

smoothSolver:  Solving for Ux, Initial residual = 0.0023673, Final residual = 0.000226505, No Iterations 6
smoothSolver:  Solving for Uy, Initial residual = 0.0139147, Final residual = 0.00128301, No Iterations 6
Pressure gradient source: uncorrected Ubar = 0.999988, pressure gradient = -0.187717
GAMG:  Solving for p, Initial residual = 0.0303972, Final residual = 0.0029308, No Iterations 13
time step continuity errors : sum local = 4.57494e-06, global = 3.44954e-19, cumulative = 2.04544e-17
Pressure gradient source: uncorrected Ubar = 0.999995, pressure gradient = -0.189525
smoothSolver:  Solving for omega, Initial residual = 6.20408e-06, Final residual = 6.20408e-06, No Iterations 0
smoothSolver:  Solving for k, Initial residual = 0.00244503, Final residual = 0.000191677, No Iterations 6
ExecutionTime = 0.232657 s  ClockTime = 0 s

Time = 85s

smoothSolver:  Solving for Ux, Initial residual = 0.00233834, Final residual = 0.000223585, No Iterations 6
smoothSolver:  Solving for Uy, Initial residual = 0.0160476, Final residual = 0.0014946, No Iterations 6
Pressure gradient source: uncorrected Ubar = 0.999985, pressure gradient = -0.185698
GAMG:  Solving for p, Initial residual = 0.0305377, Final residual = 0.00298726, No Iterations 14
time step continuity errors : sum local = 4.82846e-06, global = 5.5522e-18, cumulative = 2.60066e-17
Pressure gradient source: uncorrected Ubar = 0.999995, pressure gradient = -0.188214
smoothSolver:  Solving for omega, Initial residual = 6.19771e-06, Final residual = 6.19771e-06, No Iterations 0
smoothSolver:  Solving for k, Initial residual = 0.00235781, Final residual = 0.000184099, No Iterations 6
ExecutionTime = 0.235663 s  ClockTime = 0 s

Time = 86s

smoothSolver:  Solving for Ux, Initial residual = 0.00231119, Final residual = 0.000220913, No Iterations 6
smoothSolver:  Solving for Uy, Initial residual = 0.0171075, Final residual = 0.0016016, No Iterations 6
Pressure gradient source: uncorrected Ubar = 0.999986, pressure gradient = -0.184657
GAMG:  Solving for p, Initial residual = 0.0276964, Final residual = 0.00264602, No Iterations 8
time step continuity errors : sum local = 4.12389e-06, global = -3.12137e-18, cumulative = 2.28852e-17
Pressure gradient source: uncorrected Ubar = 0.999995, pressure gradient = -0.18696
smoothSolver:  Solving for omega, Initial residual = 6.18832e-06, Final residual = 6.18832e-06, No Iterations 0
smoothSolver:  Solving for k, Initial residual = 0.00227994, Final residual = 0.000177447, No Iterations 6
ExecutionTime = 0.2384 s  ClockTime = 0 s

Time = 87s

smoothSolver:  Solving for Ux, Initial residual = 0.00228637, Final residual = 0.000218389, No Iterations 6
smoothSolver:  Solving for Uy, Initial residual = 0.0175892, Final residual = 0.00164561, No Iterations 6
Pressure gradient source: uncorrected Ubar = 0.999987, pressure gradient = -0.183515
GAMG:  Solving for p, Initial residual = 0.0252098, Final residual = 0.00231083, No Iterations 7
time step continuity errors : sum local = 3.53968e-06, global = 6.4976e-19, cumulative = 2.3535e-17
Pressure gradient source: uncorrected Ubar = 0.999995, pressure gradient = -0.185739
smoothSolver:  Solving for omega, Initial residual = 6.1783e-06, Final residual = 6.1783e-06, No Iterations 0
smoothSolver:  Solving for k, Initial residual = 0.00220345, Final residual = 0.000171195, No Iterations 6
ExecutionTime = 0.241127 s  ClockTime = 0 s

Time = 88s

smoothSolver:  Solving for Ux, Initial residual = 0.00226281, Final residual = 0.000215983, No Iterations 6
smoothSolver:  Solving for Uy, Initial residual = 0.0176563, Final residual = 0.00164636, No Iterations 6
Pressure gradient source: uncorrected Ubar = 0.999987, pressure gradient = -0.182405
GAMG:  Solving for p, Initial residual = 0.0242992, Final residual = 0.00225339, No Iterations 10
time step continuity errors : sum local = 3.5698e-06, global = -2.10154e-18, cumulative = 2.14334e-17
Pressure gradient source: uncorrected Ubar = 0.999995, pressure gradient = -0.184551
smoothSolver:  Solving for omega, Initial residual = 6.17042e-06, Final residual = 6.17042e-06, No Iterations 0
smoothSolver:  Solving for k, Initial residual = 0.00212777, Final residual = 0.000165012, No Iterations 6
ExecutionTime = 0.243958 s  ClockTime = 0 s

Time = 89s

smoothSolver:  Solving for Ux, Initial residual = 0.00224005, Final residual = 0.000213653, No Iterations 6
smoothSolver:  Solving for Uy, Initial residual = 0.0174904, Final residual = 0.00162729, No Iterations 6
Pressure gradient source: uncorrected Ubar = 0.999987, pressure gradient = -0.181298
[...]
Pressure gradient source: uncorrected Ubar = 1, pressure gradient = 0.0342767
smoothSolver:  Solving for omega, Initial residual = 5.66773e-06, Final residual = 5.66773e-06, No Iterations 0
smoothSolver:  Solving for k, Initial residual = 1.5904e-05, Final residual = 6.98176e-06, No Iterations 2
ExecutionTime = 5.11104 s  ClockTime = 5 s

Time = 1910s

smoothSolver:  Solving for Ux, Initial residual = 1.52562e-05, Final residual = 9.96116e-06, No Iterations 1
smoothSolver:  Solving for Uy, Initial residual = 0.000280814, Final residual = 1.86005e-05, No Iterations 6
Pressure gradient source: uncorrected Ubar = 1, pressure gradient = 0.0342699
GAMG:  Solving for p, Initial residual = 0.000164541, Final residual = 1.5233e-05, No Iterations 14
time step continuity errors : sum local = 9.11006e-10, global = 4.95133e-18, cumulative = 3.78072e-16
Pressure gradient source: uncorrected Ubar = 1, pressure gradient = 0.0342755
smoothSolver:  Solving for omega, Initial residual = 5.66773e-06, Final residual = 5.66773e-06, No Iterations 0
smoothSolver:  Solving for k, Initial residual = 1.58614e-05, Final residual = 6.96306e-06, No Iterations 2
ExecutionTime = 5.11395 s  ClockTime = 5 s

Time = 1911s

smoothSolver:  Solving for Ux, Initial residual = 1.52262e-05, Final residual = 9.94745e-06, No Iterations 1
smoothSolver:  Solving for Uy, Initial residual = 0.000347214, Final residual = 3.44968e-05, No Iterations 5
Pressure gradient source: uncorrected Ubar = 1, pressure gradient = 0.0342701
GAMG:  Solving for p, Initial residual = 0.000157329, Final residual = 1.56214e-05, No Iterations 15
time step continuity errors : sum local = 9.37594e-10, global = 8.33925e-18, cumulative = 3.86412e-16
Pressure gradient source: uncorrected Ubar = 1, pressure gradient = 0.0342747
smoothSolver:  Solving for omega, Initial residual = 5.66772e-06, Final residual = 5.66772e-06, No Iterations 0
smoothSolver:  Solving for k, Initial residual = 1.5819e-05, Final residual = 6.94443e-06, No Iterations 2
ExecutionTime = 5.11691 s  ClockTime = 5 s

Time = 1912s

smoothSolver:  Solving for Ux, Initial residual = 1.51969e-05, Final residual = 9.93255e-06, No Iterations 1
smoothSolver:  Solving for Uy, Initial residual = 0.000358924, Final residual = 2.31189e-05, No Iterations 6
Pressure gradient source: uncorrected Ubar = 1, pressure gradient = 0.03427
GAMG:  Solving for p, Initial residual = 0.000132597, Final residual = 1.20607e-05, No Iterations 17
time step continuity errors : sum local = 7.33737e-10, global = 3.25047e-19, cumulative = 3.86737e-16
Pressure gradient source: uncorrected Ubar = 1, pressure gradient = 0.034274
smoothSolver:  Solving for omega, Initial residual = 5.66772e-06, Final residual = 5.66772e-06, No Iterations 0
smoothSolver:  Solving for k, Initial residual = 1.57767e-05, Final residual = 6.92586e-06, No Iterations 2
ExecutionTime = 5.11996 s  ClockTime = 5 s

Time = 1913s

smoothSolver:  Solving for Ux, Initial residual = 1.51679e-05, Final residual = 9.91698e-06, No Iterations 1
smoothSolver:  Solving for Uy, Initial residual = 0.000339962, Final residual = 2.21049e-05, No Iterations 6
Pressure gradient source: uncorrected Ubar = 1, pressure gradient = 0.0342697
GAMG:  Solving for p, Initial residual = 9.81667e-05, Final residual = 9.43006e-06, No Iterations 17
time step continuity errors : sum local = 5.76194e-10, global = -3.03358e-18, cumulative = 3.83703e-16
Pressure gradient source: uncorrected Ubar = 1, pressure gradient = 0.0342734
smoothSolver:  Solving for omega, Initial residual = 5.66772e-06, Final residual = 5.66772e-06, No Iterations 0
smoothSolver:  Solving for k, Initial residual = 1.57346e-05, Final residual = 6.90737e-06, No Iterations 2
ExecutionTime = 5.12303 s  ClockTime = 5 s

Time = 1914s

smoothSolver:  Solving for Ux, Initial residual = 1.51393e-05, Final residual = 9.90099e-06, No Iterations 1
smoothSolver:  Solving for Uy, Initial residual = 0.00031686, Final residual = 2.0858e-05, No Iterations 6
Pressure gradient source: uncorrected Ubar = 1, pressure gradient = 0.0342695
GAMG:  Solving for p, Initial residual = 6.962e-05, Final residual = 6.5918e-06, No Iterations 13
time step continuity errors : sum local = 4.06119e-10, global = 1.2158e-18, cumulative = 3.84919e-16
Pressure gradient source: uncorrected Ubar = 1, pressure gradient = 0.0342729
smoothSolver:  Solving for omega, Initial residual = 5.66772e-06, Final residual = 5.66772e-06, No Iterations 0
smoothSolver:  Solving for k, Initial residual = 1.56926e-05, Final residual = 6.88894e-06, No Iterations 2
ExecutionTime = 5.1259 s  ClockTime = 5 s

Time = 1915s

smoothSolver:  Solving for Ux, Initial residual = 1.51108e-05, Final residual = 9.88473e-06, No Iterations 1
smoothSolver:  Solving for Uy, Initial residual = 0.00029669, Final residual = 1.97831e-05, No Iterations 6
Pressure gradient source: uncorrected Ubar = 1, pressure gradient = 0.0342693
GAMG:  Solving for p, Initial residual = 5.55933e-05, Final residual = 4.99958e-06, No Iterations 14
time step continuity errors : sum local = 3.02971e-10, global = -3.0834e-18, cumulative = 3.81836e-16
Pressure gradient source: uncorrected Ubar = 1, pressure gradient = 0.0342725
smoothSolver:  Solving for omega, Initial residual = 5.66772e-06, Final residual = 5.66772e-06, No Iterations 0
smoothSolver:  Solving for k, Initial residual = 1.56508e-05, Final residual = 6.87059e-06, No Iterations 2
ExecutionTime = 5.1288 s  ClockTime = 5 s

Time = 1916s

smoothSolver:  Solving for Ux, Initial residual = 1.50825e-05, Final residual = 9.86827e-06, No Iterations 1
smoothSolver:  Solving for Uy, Initial residual = 0.000281272, Final residual = 1.90159e-05, No Iterations 6
Pressure gradient source: uncorrected Ubar = 1, pressure gradient = 0.034269
GAMG:  Solving for p, Initial residual = 5.03361e-05, Final residual = 5.02488e-06, No Iterations 8
time step continuity errors : sum local = 2.99547e-10, global = -1.7154e-18, cumulative = 3.8012e-16
Pressure gradient source: uncorrected Ubar = 1, pressure gradient = 0.0342721
smoothSolver:  Solving for omega, Initial residual = 5.66772e-06, Final residual = 5.66772e-06, No Iterations 0
smoothSolver:  Solving for k, Initial residual = 1.56092e-05, Final residual = 6.85231e-06, No Iterations 2
ExecutionTime = 5.13142 s  ClockTime = 5 s

Time = 1917s

smoothSolver:  Solving for Ux, Initial residual = 1.50545e-05, Final residual = 9.85168e-06, No Iterations 1
smoothSolver:  Solving for Uy, Initial residual = 0.000265495, Final residual = 1.81871e-05, No Iterations 6
Pressure gradient source: uncorrected Ubar = 1, pressure gradient = 0.0342688
GAMG:  Solving for p, Initial residual = 4.78126e-05, Final residual = 4.49314e-06, No Iterations 5
time step continuity errors : sum local = 2.68091e-10, global = 1.83634e-19, cumulative = 3.80304e-16
Pressure gradient source: uncorrected Ubar = 1, pressure gradient = 0.0342717
smoothSolver:  Solving for omega, Initial residual = 5.66771e-06, Final residual = 5.66771e-06, No Iterations 0
smoothSolver:  Solving for k, Initial residual = 1.55677e-05, Final residual = 6.83409e-06, No Iterations 2
ExecutionTime = 5.13392 s  ClockTime = 5 s

Time = 1918s

smoothSolver:  Solving for Ux, Initial residual = 1.50265e-05, Final residual = 9.835e-06, No Iterations 1
smoothSolver:  Solving for Uy, Initial residual = 0.000250386, Final residual = 1.73587e-05, No Iterations 6
Pressure gradient source: uncorrected Ubar = 1, pressure gradient = 0.0342685
GAMG:  Solving for p, Initial residual = 4.47946e-05, Final residual = 4.35502e-06, No Iterations 5
time step continuity errors : sum local = 2.59458e-10, global = -4.72083e-18, cumulative = 3.75583e-16
Pressure gradient source: uncorrected Ubar = 1, pressure gradient = 0.0342714
smoothSolver:  Solving for omega, Initial residual = 5.66771e-06, Final residual = 5.66771e-06, No Iterations 0
smoothSolver:  Solving for k, Initial residual = 1.55263e-05, Final residual = 6.81595e-06, No Iterations 2
ExecutionTime = 5.1364 s  ClockTime = 5 s

Time = 1919s

smoothSolver:  Solving for Ux, Initial residual = 1.49987e-05, Final residual = 9.81824e-06, No Iterations 1
smoothSolver:  Solving for Uy, Initial residual = 0.000234613, Final residual = 1.64398e-05, No Iterations 6
Pressure gradient source: uncorrected Ubar = 1, pressure gradient = 0.0342683
GAMG:  Solving for p, Initial residual = 4.29045e-05, Final residual = 3.79996e-06, No Iterations 6
time step continuity errors : sum local = 2.25849e-10, global = -2.05916e-18, cumulative = 3.73524e-16
Pressure gradient source: uncorrected Ubar = 1, pressure gradient = 0.0342711
smoothSolver:  Solving for omega, Initial residual = 5.66771e-06, Final residual = 5.66771e-06, No Iterations 0
smoothSolver:  Solving for k, Initial residual = 1.54852e-05, Final residual = 6.79787e-06, No Iterations 2
ExecutionTime = 5.13891 s  ClockTime = 5 s

Time = 1920s

smoothSolver:  Solving for Ux, Initial residual = 1.4971e-05, Final residual = 9.80144e-06, No Iterations 1
smoothSolver:  Solving for Uy, Initial residual = 0.000219074, Final residual = 1.54701e-05, No Iterations 6
Pressure gradient source: uncorrected Ubar = 1, pressure gradient = 0.034268
GAMG:  Solving for p, Initial residual = 4.3138e-05, Final residual = 3.5725e-06, No Iterations 7
time step continuity errors : sum local = 2.05108e-10, global = 3.65515e-19, cumulative = 3.73889e-16
Pressure gradient source: uncorrected Ubar = 1, pressure gradient = 0.0342707
smoothSolver:  Solving for omega, Initial residual = 5.66771e-06, Final residual = 5.66771e-06, No Iterations 0
smoothSolver:  Solving for k, Initial residual = 1.54441e-05, Final residual = 6.77985e-06, No Iterations 2
ExecutionTime = 5.14149 s  ClockTime = 5 s

Time = 1921s

smoothSolver:  Solving for Ux, Initial residual = 1.49435e-05, Final residual = 9.7846e-06, No Iterations 1
smoothSolver:  Solving for Uy, Initial residual = 0.000206205, Final residual = 1.45744e-05, No Iterations 6
Pressure gradient source: uncorrected Ubar = 1, pressure gradient = 0.0342678
GAMG:  Solving for p, Initial residual = 4.27907e-05, Final residual = 3.68092e-06, No Iterations 7
time step continuity errors : sum local = 2.10537e-10, global = 6.98506e-20, cumulative = 3.73959e-16
Pressure gradient source: uncorrected Ubar = 1, pressure gradient = 0.0342704
smoothSolver:  Solving for omega, Initial residual = 5.66771e-06, Final residual = 5.66771e-06, No Iterations 0
smoothSolver:  Solving for k, Initial residual = 1.54033e-05, Final residual = 6.7619e-06, No Iterations 2
ExecutionTime = 5.1441 s  ClockTime = 5 s

Time = 1922s

smoothSolver:  Solving for Ux, Initial residual = 1.4916e-05, Final residual = 9.76774e-06, No Iterations 1
smoothSolver:  Solving for Uy, Initial residual = 0.000194569, Final residual = 1.37085e-05, No Iterations 6
Pressure gradient source: uncorrected Ubar = 1, pressure gradient = 0.0342676
GAMG:  Solving for p, Initial residual = 4.29342e-05, Final residual = 4.28742e-06, No Iterations 6
time step continuity errors : sum local = 2.49207e-10, global = 7.9776e-18, cumulative = 3.81937e-16
Pressure gradient source: uncorrected Ubar = 1, pressure gradient = 0.0342701
smoothSolver:  Solving for omega, Initial residual = 5.66771e-06, Final residual = 5.66771e-06, No Iterations 0
smoothSolver:  Solving for k, Initial residual = 1.53625e-05, Final residual = 6.74401e-06, No Iterations 2
ExecutionTime = 5.14663 s  ClockTime = 5 s

Time = 1923s

smoothSolver:  Solving for Ux, Initial residual = 1.48887e-05, Final residual = 9.75087e-06, No Iterations 1
smoothSolver:  Solving for Uy, Initial residual = 0.000182422, Final residual = 1.28025e-05, No Iterations 6
Pressure gradient source: uncorrected Ubar = 1, pressure gradient = 0.0342673
GAMG:  Solving for p, Initial residual = 4.41426e-05, Final residual = 3.84872e-06, No Iterations 7
time step continuity errors : sum local = 2.25959e-10, global = -1.48402e-18, cumulative = 3.80453e-16
Pressure gradient source: uncorrected Ubar = 1, pressure gradient = 0.0342699
smoothSolver:  Solving for omega, Initial residual = 5.6677e-06, Final residual = 5.6677e-06, No Iterations 0
smoothSolver:  Solving for k, Initial residual = 1.53219e-05, Final residual = 6.72619e-06, No Iterations 2
ExecutionTime = 5.14924 s  ClockTime = 5 s

Time = 1924s

smoothSolver:  Solving for Ux, Initial residual = 1.48614e-05, Final residual = 9.73399e-06, No Iterations 1
smoothSolver:  Solving for Uy, Initial residual = 0.000170893, Final residual = 1.19163e-05, No Iterations 6
Pressure gradient source: uncorrected Ubar = 1, pressure gradient = 0.0342671
GAMG:  Solving for p, Initial residual = 4.31323e-05, Final residual = 4.11174e-06, No Iterations 7
time step continuity errors : sum local = 2.40671e-10, global = 4.5915e-18, cumulative = 3.85044e-16
Pressure gradient source: uncorrected Ubar = 1, pressure gradient = 0.0342696
smoothSolver:  Solving for omega, Initial residual = 5.6677e-06, Final residual = 5.6677e-06, No Iterations 0
smoothSolver:  Solving for k, Initial residual = 1.52815e-05, Final residual = 6.70842e-06, No Iterations 2
ExecutionTime = 5.15183 s  ClockTime = 5 s

Time = 1925s

smoothSolver:  Solving for Ux, Initial residual = 1.48343e-05, Final residual = 9.7171e-06, No Iterations 1
smoothSolver:  Solving for Uy, Initial residual = 0.000159869, Final residual = 1.10591e-05, No Iterations 6
Pressure gradient source: uncorrected Ubar = 1, pressure gradient = 0.0342669
GAMG:  Solving for p, Initial residual = 4.23355e-05, Final residual = 3.90544e-06, No Iterations 8
time step continuity errors : sum local = 2.28271e-10, global = 1.03726e-17, cumulative = 3.95417e-16
Pressure gradient source: uncorrected Ubar = 1, pressure gradient = 0.0342693
smoothSolver:  Solving for omega, Initial residual = 5.6677e-06, Final residual = 5.6677e-06, No Iterations 0
smoothSolver:  Solving for k, Initial residual = 1.52411e-05, Final residual = 6.69071e-06, No Iterations 2
ExecutionTime = 5.15447 s  ClockTime = 5 s

Time = 1926s

smoothSolver:  Solving for Ux, Initial residual = 1.48072e-05, Final residual = 9.70022e-06, No Iterations 1
smoothSolver:  Solving for Uy, Initial residual = 0.000149055, Final residual = 1.02413e-05, No Iterations 6
Pressure gradient source: uncorrected Ubar = 1, pressure gradient = 0.0342667
GAMG:  Solving for p, Initial residual = 4.18285e-05, Final residual = 4.08551e-06, No Iterations 8
time step continuity errors : sum local = 2.38384e-10, global = 2.41028e-18, cumulative = 3.97827e-16
Pressure gradient source: uncorrected Ubar = 1, pressure gradient = 0.0342691
smoothSolver:  Solving for omega, Initial residual = 5.6677e-06, Final residual = 5.6677e-06, No Iterations 0
smoothSolver:  Solving for k, Initial residual = 1.52009e-05, Final residual = 6.67305e-06, No Iterations 2
ExecutionTime = 5.15709 s  ClockTime = 5 s

Time = 1927s

smoothSolver:  Solving for Ux, Initial residual = 1.47802e-05, Final residual = 9.68334e-06, No Iterations 1
smoothSolver:  Solving for Uy, Initial residual = 0.000138205, Final residual = 9.43501e-06, No Iterations 6
Pressure gradient source: uncorrected Ubar = 1, pressure gradient = 0.0342664
GAMG:  Solving for p, Initial residual = 4.14587e-05, Final residual = 3.91095e-06, No Iterations 9
time step continuity errors : sum local = 2.2904e-10, global = 2.52713e-18, cumulative = 4.00354e-16
Pressure gradient source: uncorrected Ubar = 1, pressure gradient = 0.0342688
smoothSolver:  Solving for omega, Initial residual = 5.6677e-06, Final residual = 5.6677e-06, No Iterations 0
smoothSolver:  Solving for k, Initial residual = 1.51609e-05, Final residual = 6.65546e-06, No Iterations 2
ExecutionTime = 5.15977 s  ClockTime = 5 s

Time = 1928s

smoothSolver:  Solving for Ux, Initial residual = 1.47533e-05, Final residual = 9.66647e-06, No Iterations 1
smoothSolver:  Solving for Uy, Initial residual = 0.000127301, Final residual = 8.67444e-06, No Iterations 6
Pressure gradient source: uncorrected Ubar = 1, pressure gradient = 0.0342662
GAMG:  Solving for p, Initial residual = 4.04413e-05, Final residual = 3.90053e-06, No Iterations 10
time step continuity errors : sum local = 2.28443e-10, global = -3.48569e-18, cumulative = 3.96869e-16
Pressure gradient source: uncorrected Ubar = 1, pressure gradient = 0.0342685
smoothSolver:  Solving for omega, Initial residual = 5.6677e-06, Final residual = 5.6677e-06, No Iterations 0
smoothSolver:  Solving for k, Initial residual = 1.51209e-05, Final residual = 6.63791e-06, No Iterations 2
ExecutionTime = 5.16252 s  ClockTime = 5 s

Time = 1929s

smoothSolver:  Solving for Ux, Initial residual = 1.47265e-05, Final residual = 9.64961e-06, No Iterations 1
smoothSolver:  Solving for Uy, Initial residual = 0.000117574, Final residual = 7.98481e-06, No Iterations 6
Pressure gradient source: uncorrected Ubar = 1, pressure gradient = 0.034266
GAMG:  Solving for p, Initial residual = 4.01339e-05, Final residual = 3.6468e-06, No Iterations 11
time step continuity errors : sum local = 2.14383e-10, global = -2.18205e-18, cumulative = 3.94686e-16
Pressure gradient source: uncorrected Ubar = 1, pressure gradient = 0.0342683
smoothSolver:  Solving for omega, Initial residual = 5.66769e-06, Final residual = 5.66769e-06, No Iterations 0
smoothSolver:  Solving for k, Initial residual = 1.50811e-05, Final residual = 9.99151e-06, No Iterations 1
ExecutionTime = 5.16529 s  ClockTime = 5 s

Time = 1930s

smoothSolver:  Solving for Ux, Initial residual = 1.46912e-05, Final residual = 9.627e-06, No Iterations 1
smoothSolver:  Solving for Uy, Initial residual = 0.000111009, Final residual = 7.5359e-06, No Iterations 6
Pressure gradient source: uncorrected Ubar = 1, pressure gradient = 0.0342661
GAMG:  Solving for p, Initial residual = 3.97011e-05, Final residual = 3.57003e-06, No Iterations 12
time step continuity errors : sum local = 2.09445e-10, global = -3.96109e-18, cumulative = 3.90725e-16
Pressure gradient source: uncorrected Ubar = 1, pressure gradient = 0.0342682
smoothSolver:  Solving for omega, Initial residual = 5.66769e-06, Final residual = 5.66769e-06, No Iterations 0
smoothSolver:  Solving for k, Initial residual = 1.50487e-05, Final residual = 9.9701e-06, No Iterations 1
ExecutionTime = 5.1681 s  ClockTime = 5 s

Time = 1931s

smoothSolver:  Solving for Ux, Initial residual = 1.4656e-05, Final residual = 9.60441e-06, No Iterations 1
smoothSolver:  Solving for Uy, Initial residual = 0.000102841, Final residual = 6.91876e-06, No Iterations 6
Pressure gradient source: uncorrected Ubar = 1, pressure gradient = 0.034266
GAMG:  Solving for p, Initial residual = 3.92314e-05, Final residual = 3.70189e-06, No Iterations 12
time step continuity errors : sum local = 2.16704e-10, global = 3.9808e-18, cumulative = 3.94706e-16
Pressure gradient source: uncorrected Ubar = 1, pressure gradient = 0.034268
smoothSolver:  Solving for omega, Initial residual = 5.66769e-06, Final residual = 5.66769e-06, No Iterations 0
smoothSolver:  Solving for k, Initial residual = 1.50164e-05, Final residual = 9.94874e-06, No Iterations 1
ExecutionTime = 5.1709 s  ClockTime = 5 s

Time = 1932s

smoothSolver:  Solving for Ux, Initial residual = 1.46208e-05, Final residual = 9.58181e-06, No Iterations 1
smoothSolver:  Solving for Uy, Initial residual = 9.39517e-05, Final residual = 9.78395e-06, No Iterations 5
Pressure gradient source: uncorrected Ubar = 1, pressure gradient = 0.034266
GAMG:  Solving for p, Initial residual = 3.80801e-05, Final residual = 3.36514e-06, No Iterations 13
time step continuity errors : sum local = 1.97906e-10, global = 1.77271e-18, cumulative = 3.96479e-16
Pressure gradient source: uncorrected Ubar = 1, pressure gradient = 0.0342679
smoothSolver:  Solving for omega, Initial residual = 5.66769e-06, Final residual = 5.66769e-06, No Iterations 0
smoothSolver:  Solving for k, Initial residual = 1.49842e-05, Final residual = 9.92743e-06, No Iterations 1
ExecutionTime = 5.17378 s  ClockTime = 5 s


SIMPLE solution converged in 1932 iterations

End

