/*---------------------------------------------------------------------------*\
  =========                 |
  \\      /  F ield         | OpenFOAM: The Open Source CFD Toolbox
   \\    /   O peration     | Website:  https://openfoam.org
    \\  /    A nd           | Version:  10
     \\/     M anipulation  |
\*---------------------------------------------------------------------------*/
Build  : 10-e450dce21ea5
Exec   : blockMesh
Date   : Jan 16 2023
Time   : 11:43:13
Host   : "w530-R9YK46P"
PID    : 14309
I/O    : uncollated
Case   : /home/jdmezazeron/gitDanielMezaZ/turbulenceVisualized/Data/SimulationFiles/E15_Re2106
nProcs : 1
sigFpe : Enabling floating point exception trapping (FOAM_SIGFPE).
fileModificationChecking : Monitoring run-time modified files using timeStampMaster (fileModificationSkew 10)
allowSystemOperations : Allowing user-supplied system call operations

// * * * * * * * * * * * * * * * * * * * * * * * * * * * * * * * * * * * * * //
Create time

Reading "blockMeshDict"

Creating block mesh from
    "system/blockMeshDict"
Creating block edges
No non-planar block faces defined
Creating topology blocks
Creating topology patches

Creating block mesh topology

Check topology

	Basic statistics
		Number of internal faces : 0
		Number of boundary faces : 6
		Number of defined boundary faces : 6
		Number of undefined boundary faces : 0
	Checking patch -> block consistency

Creating block offsets
Creating merge list .

Creating polyMesh from blockMesh
Creating patches
Creating cells
Creating points with scale 1
    Block 0 cell size :
        i : 0.5
        j : 0.00921276 .. 0.036851
        k : 2

Detected cyclic patches; ordering boundary faces

Writing polyMesh
----------------
Mesh Information
----------------
  boundingBox: (-1 0 -1) (1 1 1)
  nPoints: 510
  nCells: 200
  nFaces: 854
  nInternalFaces: 346
----------------
Patches
----------------
  patch 0 (start: 346 size: 50) name: inlet
  patch 1 (start: 396 size: 50) name: outlet
  patch 2 (start: 446 size: 4) name: fixedWalls-bottom
  patch 3 (start: 450 size: 4) name: fixedWalls-top
  patch 4 (start: 454 size: 400) name: frontAndBack

End

/*---------------------------------------------------------------------------*\
  =========                 |
  \\      /  F ield         | OpenFOAM: The Open Source CFD Toolbox
   \\    /   O peration     | Website:  https://openfoam.org
    \\  /    A nd           | Version:  10
     \\/     M anipulation  |
\*---------------------------------------------------------------------------*/
Build  : 10-e450dce21ea5
Exec   : simpleFoam
Date   : Jan 16 2023
Time   : 11:43:13
Host   : "w530-R9YK46P"
PID    : 14310
I/O    : uncollated
Case   : /home/jdmezazeron/gitDanielMezaZ/turbulenceVisualized/Data/SimulationFiles/E15_Re2106
nProcs : 1
sigFpe : Enabling floating point exception trapping (FOAM_SIGFPE).
fileModificationChecking : Monitoring run-time modified files using timeStampMaster (fileModificationSkew 10)
allowSystemOperations : Allowing user-supplied system call operations

// * * * * * * * * * * * * * * * * * * * * * * * * * * * * * * * * * * * * * //
Create time

Create mesh for time = 0


SIMPLE: Convergence criteria found
        U: tolerance 0.01
        p: tolerance 0.01
        omega: tolerance 0.0001

Reading field p

Reading field U

Reading/calculating face flux field phi

Selecting viscosity model Newtonian
Selecting turbulence model type RAS
Selecting RAS turbulence model kOmegaSST
Selecting patchDistMethod meshWave
RAS
{
    RASModel        kOmegaSST;
    turbulence      on;
    printCoeffs     on;
    alphaK1         0.85;
    alphaK2         1;
    alphaOmega1     0.5;
    alphaOmega2     0.856;
    gamma1          0.555556;
    gamma2          0.44;
    beta1           0.075;
    beta2           0.0828;
    betaStar        0.09;
    a1              0.31;
    b1              1;
    c1              10;
    F3              false;
}

No MRF models present

--> FOAM Warning : Creating fvModels from "system/fvOptions" rather than constant/fvModels
No fvModels present
--> FOAM Warning : Creating fvConstraints from "system/fvOptions"

Selecting finite volume constraint type meanVelocityForce
    Name: momentumSource
    - selecting all cells
    - selected 200 cell(s) with volume 4
    Initial pressure gradient = 0


Starting time loop

turbulenceFields stressComponents: storing fields:
    R

Time = 1s

smoothSolver:  Solving for Ux, Initial residual = 0, Final residual = 0, No Iterations 0
smoothSolver:  Solving for Uy, Initial residual = 0, Final residual = 0, No Iterations 0
Pressure gradient source: uncorrected Ubar = 0, pressure gradient = 4.34481
GAMG:  Solving for p, Initial residual = 0.999989, Final residual = 0.0504162, No Iterations 3
time step continuity errors : sum local = 4.27397e-17, global = 5.11378e-18, cumulative = 5.11378e-18
Pressure gradient source: uncorrected Ubar = 0.869368, pressure gradient = 0.567572
smoothSolver:  Solving for omega, Initial residual = 0.0407363, Final residual = 0.00350803, No Iterations 1
bounding omega, min: -5.74578 max: 3580.24 average: 139.77
smoothSolver:  Solving for k, Initial residual = 1, Final residual = 0.0723361, No Iterations 1
ExecutionTime = 0.013211 s  ClockTime = 0 s

Time = 2s

smoothSolver:  Solving for Ux, Initial residual = 0.278659, Final residual = 0.0225812, No Iterations 6
smoothSolver:  Solving for Uy, Initial residual = 1, Final residual = 0.0840785, No Iterations 2
Pressure gradient source: uncorrected Ubar = 1.41629, pressure gradient = -3.51875
GAMG:  Solving for p, Initial residual = 1, Final residual = 0.0709567, No Iterations 7
time step continuity errors : sum local = 0.00459119, global = 1.21294e-18, cumulative = 6.32672e-18
Pressure gradient source: uncorrected Ubar = 1.07253, pressure gradient = -0.144386
smoothSolver:  Solving for omega, Initial residual = 0.075055, Final residual = 0.000886443, No Iterations 1
smoothSolver:  Solving for k, Initial residual = 0.235932, Final residual = 0.015203, No Iterations 3
ExecutionTime = 0.01542 s  ClockTime = 0 s

Time = 3s

smoothSolver:  Solving for Ux, Initial residual = 0.195852, Final residual = 0.0156305, No Iterations 5
smoothSolver:  Solving for Uy, Initial residual = 0.512423, Final residual = 0.0213981, No Iterations 3
Pressure gradient source: uncorrected Ubar = 0.889075, pressure gradient = 1.13985
GAMG:  Solving for p, Initial residual = 0.17826, Final residual = 0.016073, No Iterations 5
time step continuity errors : sum local = 0.00301184, global = 4.06576e-20, cumulative = 6.36738e-18
Pressure gradient source: uncorrected Ubar = 0.984684, pressure gradient = 0.0329312
smoothSolver:  Solving for omega, Initial residual = 0.00923357, Final residual = 0.000441747, No Iterations 1
smoothSolver:  Solving for k, Initial residual = 0.103081, Final residual = 0.00852854, No Iterations 2
ExecutionTime = 0.017383 s  ClockTime = 0 s

Time = 4s

smoothSolver:  Solving for Ux, Initial residual = 0.0701867, Final residual = 0.00482308, No Iterations 4
smoothSolver:  Solving for Uy, Initial residual = 0.366856, Final residual = 0.0164103, No Iterations 3
Pressure gradient source: uncorrected Ubar = 1.01035, pressure gradient = -0.0884872
GAMG:  Solving for p, Initial residual = 0.12648, Final residual = 0.0123002, No Iterations 7
time step continuity errors : sum local = 0.00262104, global = 2.27852e-18, cumulative = 8.6459e-18
Pressure gradient source: uncorrected Ubar = 1.00125, pressure gradient = 0.0182123
smoothSolver:  Solving for omega, Initial residual = 0.00867327, Final residual = 0.000265423, No Iterations 1
smoothSolver:  Solving for k, Initial residual = 0.0526805, Final residual = 0.00232831, No Iterations 3
ExecutionTime = 0.019424 s  ClockTime = 0 s

Time = 5s

smoothSolver:  Solving for Ux, Initial residual = 0.0398291, Final residual = 0.00313955, No Iterations 4
smoothSolver:  Solving for Uy, Initial residual = 0.445563, Final residual = 0.0188655, No Iterations 3
Pressure gradient source: uncorrected Ubar = 1.00255, pressure gradient = -0.0120382
GAMG:  Solving for p, Initial residual = 0.168482, Final residual = 0.0114594, No Iterations 5
time step continuity errors : sum local = 0.00134541, global = 1.11503e-17, cumulative = 1.97962e-17
Pressure gradient source: uncorrected Ubar = 1.00033, pressure gradient = 0.014319
smoothSolver:  Solving for omega, Initial residual = 0.00349596, Final residual = 0.000160056, No Iterations 1
smoothSolver:  Solving for k, Initial residual = 0.0377399, Final residual = 0.00265446, No Iterations 3
ExecutionTime = 0.021362 s  ClockTime = 0 s

Time = 6s

smoothSolver:  Solving for Ux, Initial residual = 0.0251254, Final residual = 0.00243076, No Iterations 4
smoothSolver:  Solving for Uy, Initial residual = 0.630522, Final residual = 0.0259049, No Iterations 3
Pressure gradient source: uncorrected Ubar = 1.00179, pressure gradient = -0.00694786
GAMG:  Solving for p, Initial residual = 0.129023, Final residual = 0.0100513, No Iterations 8
time step continuity errors : sum local = 0.000949728, global = -4.11997e-18, cumulative = 1.56763e-17
Pressure gradient source: uncorrected Ubar = 1.00025, pressure gradient = 0.0113347
smoothSolver:  Solving for omega, Initial residual = 0.00233288, Final residual = 0.000106899, No Iterations 1
smoothSolver:  Solving for k, Initial residual = 0.029356, Final residual = 0.00252746, No Iterations 3
ExecutionTime = 0.023536 s  ClockTime = 0 s

Time = 7s

smoothSolver:  Solving for Ux, Initial residual = 0.0179559, Final residual = 0.00134878, No Iterations 5
smoothSolver:  Solving for Uy, Initial residual = 0.776013, Final residual = 0.0322076, No Iterations 3
Pressure gradient source: uncorrected Ubar = 1.0012, pressure gradient = -0.00309758
GAMG:  Solving for p, Initial residual = 0.115581, Final residual = 0.00754802, No Iterations 7
time step continuity errors : sum local = 0.00052581, global = 1.61123e-17, cumulative = 3.17885e-17
Pressure gradient source: uncorrected Ubar = 1.00014, pressure gradient = 0.00960142
smoothSolver:  Solving for omega, Initial residual = 0.00120263, Final residual = 7.26524e-05, No Iterations 1
smoothSolver:  Solving for k, Initial residual = 0.028942, Final residual = 0.00186741, No Iterations 4
ExecutionTime = 0.026198 s  ClockTime = 0 s

Time = 8s

smoothSolver:  Solving for Ux, Initial residual = 0.014354, Final residual = 0.00118276, No Iterations 5
smoothSolver:  Solving for Uy, Initial residual = 0.849098, Final residual = 0.0404154, No Iterations 3
Pressure gradient source: uncorrected Ubar = 1.00087, pressure gradient = -0.000925224
GAMG:  Solving for p, Initial residual = 0.108187, Final residual = 0.00657705, No Iterations 4
time step continuity errors : sum local = 0.0004556, global = -7.26415e-18, cumulative = 2.45244e-17
Pressure gradient source: uncorrected Ubar = 1.00009, pressure gradient = 0.00847343
smoothSolver:  Solving for omega, Initial residual = 0.000723463, Final residual = 5.01895e-05, No Iterations 1
smoothSolver:  Solving for k, Initial residual = 0.0274215, Final residual = 0.00180542, No Iterations 4
ExecutionTime = 0.028276 s  ClockTime = 0 s

Time = 9s

smoothSolver:  Solving for Ux, Initial residual = 0.0120041, Final residual = 0.00106573, No Iterations 5
smoothSolver:  Solving for Uy, Initial residual = 0.776445, Final residual = 0.0370177, No Iterations 3
Pressure gradient source: uncorrected Ubar = 1.00073, pressure gradient = -0.000541853
GAMG:  Solving for p, Initial residual = 0.0968212, Final residual = 0.00924561, No Iterations 5
time step continuity errors : sum local = 0.000558729, global = -4.54687e-18, cumulative = 1.99775e-17
Pressure gradient source: uncorrected Ubar = 1.00007, pressure gradient = 0.00755669
smoothSolver:  Solving for omega, Initial residual = 0.000411184, Final residual = 3.58105e-05, No Iterations 1
smoothSolver:  Solving for k, Initial residual = 0.0264295, Final residual = 0.00246831, No Iterations 4
ExecutionTime = 0.03027 s  ClockTime = 0 s

Time = 10s

smoothSolver:  Solving for Ux, Initial residual = 0.0104965, Final residual = 0.000973431, No Iterations 5
smoothSolver:  Solving for Uy, Initial residual = 0.621225, Final residual = 0.0300248, No Iterations 3
Pressure gradient source: uncorrected Ubar = 1.00059, pressure gradient = 0.000294841
GAMG:  Solving for p, Initial residual = 0.0906083, Final residual = 0.00897472, No Iterations 6
time step continuity errors : sum local = 0.000472633, global = 5.42435e-18, cumulative = 2.54019e-17
Pressure gradient source: uncorrected Ubar = 1.00006, pressure gradient = 0.00682149
smoothSolver:  Solving for omega, Initial residual = 0.000249315, Final residual = 1.39381e-05, No Iterations 2
smoothSolver:  Solving for k, Initial residual = 0.0230785, Final residual = 0.00155718, No Iterations 5
ExecutionTime = 0.032352 s  ClockTime = 0 s

Time = 11s

smoothSolver:  Solving for Ux, Initial residual = 0.00959516, Final residual = 0.000921288, No Iterations 5
smoothSolver:  Solving for Uy, Initial residual = 0.514907, Final residual = 0.0227522, No Iterations 3
Pressure gradient source: uncorrected Ubar = 1.00033, pressure gradient = 0.0026678
GAMG:  Solving for p, Initial residual = 0.0861669, Final residual = 0.00751465, No Iterations 6
time step continuity errors : sum local = 0.000334774, global = -2.67451e-19, cumulative = 2.51344e-17
Pressure gradient source: uncorrected Ubar = 1.00003, pressure gradient = 0.00648166
smoothSolver:  Solving for omega, Initial residual = 0.000147643, Final residual = 9.03608e-06, No Iterations 2
smoothSolver:  Solving for k, Initial residual = 0.0202409, Final residual = 0.00157766, No Iterations 4
ExecutionTime = 0.034335 s  ClockTime = 0 s

Time = 12s

smoothSolver:  Solving for Ux, Initial residual = 0.00873208, Final residual = 0.000584243, No Iterations 6
smoothSolver:  Solving for Uy, Initial residual = 0.493931, Final residual = 0.0216063, No Iterations 3
Pressure gradient source: uncorrected Ubar = 1.0002, pressure gradient = 0.0038449
GAMG:  Solving for p, Initial residual = 0.088963, Final residual = 0.0081494, No Iterations 6
time step continuity errors : sum local = 0.000312817, global = 2.80699e-18, cumulative = 2.79414e-17
Pressure gradient source: uncorrected Ubar = 1.00001, pressure gradient = 0.00629845
smoothSolver:  Solving for omega, Initial residual = 8.78436e-05, Final residual = 7.44475e-06, No Iterations 2
smoothSolver:  Solving for k, Initial residual = 0.0194568, Final residual = 0.00111704, No Iterations 5
ExecutionTime = 0.036364 s  ClockTime = 0 s

Time = 13s

smoothSolver:  Solving for Ux, Initial residual = 0.008123, Final residual = 0.000562883, No Iterations 6
smoothSolver:  Solving for Uy, Initial residual = 0.509329, Final residual = 0.0217814, No Iterations 3
Pressure gradient source: uncorrected Ubar = 1.00026, pressure gradient = 0.00284637
GAMG:  Solving for p, Initial residual = 0.0920505, Final residual = 0.00500292, No Iterations 7
time step continuity errors : sum local = 0.000158122, global = 1.81188e-17, cumulative = 4.60602e-17
Pressure gradient source: uncorrected Ubar = 1.00002, pressure gradient = 0.00598953
smoothSolver:  Solving for omega, Initial residual = 5.42688e-05, Final residual = 5.88282e-06, No Iterations 2
smoothSolver:  Solving for k, Initial residual = 0.0169951, Final residual = 0.00122319, No Iterations 5
ExecutionTime = 0.038382 s  ClockTime = 0 s

Time = 14s

smoothSolver:  Solving for Ux, Initial residual = 0.00761697, Final residual = 0.00055004, No Iterations 6
smoothSolver:  Solving for Uy, Initial residual = 0.513572, Final residual = 0.0215192, No Iterations 3
Pressure gradient source: uncorrected Ubar = 1.00022, pressure gradient = 0.00300894
GAMG:  Solving for p, Initial residual = 0.093129, Final residual = 0.0075395, No Iterations 6
time step continuity errors : sum local = 0.000204897, global = -7.01259e-18, cumulative = 3.90476e-17
Pressure gradient source: uncorrected Ubar = 1.00002, pressure gradient = 0.00570737
smoothSolver:  Solving for omega, Initial residual = 4.01156e-05, Final residual = 6.05351e-06, No Iterations 2
smoothSolver:  Solving for k, Initial residual = 0.0146123, Final residual = 0.00136163, No Iterations 4
ExecutionTime = 0.040523 s  ClockTime = 0 s

Time = 15s

smoothSolver:  Solving for Ux, Initial residual = 0.00716277, Final residual = 0.000527369, No Iterations 6
smoothSolver:  Solving for Uy, Initial residual = 0.475925, Final residual = 0.0195685, No Iterations 3
Pressure gradient source: uncorrected Ubar = 1.00015, pressure gradient = 0.00368613
GAMG:  Solving for p, Initial residual = 0.0967933, Final residual = 0.00803492, No Iterations 6
time step continuity errors : sum local = 0.000187391, global = 7.07438e-18, cumulative = 4.6122e-17
Pressure gradient source: uncorrected Ubar = 1.00001, pressure gradient = 0.00554531
smoothSolver:  Solving for omega, Initial residual = 2.91034e-05, Final residual = 9.43586e-06, No Iterations 1
smoothSolver:  Solving for k, Initial residual = 0.0122763, Final residual = 0.000800175, No Iterations 5
ExecutionTime = 0.043204 s  ClockTime = 0 s

Time = 16s

smoothSolver:  Solving for Ux, Initial residual = 0.00664426, Final residual = 0.000504645, No Iterations 6
smoothSolver:  Solving for Uy, Initial residual = 0.448549, Final residual = 0.0183335, No Iterations 3
Pressure gradient source: uncorrected Ubar = 1.00015, pressure gradient = 0.00346387
GAMG:  Solving for p, Initial residual = 0.0955851, Final residual = 0.00766565, No Iterations 6
time step continuity errors : sum local = 0.000158835, global = 4.65423e-18, cumulative = 5.07762e-17
Pressure gradient source: uncorrected Ubar = 1.00001, pressure gradient = 0.00535917
smoothSolver:  Solving for omega, Initial residual = 2.36278e-05, Final residual = 9.8645e-06, No Iterations 1
smoothSolver:  Solving for k, Initial residual = 0.00986218, Final residual = 0.000652254, No Iterations 5
ExecutionTime = 0.045345 s  ClockTime = 0 s

Time = 17s

smoothSolver:  Solving for Ux, Initial residual = 0.00620138, Final residual = 0.000483793, No Iterations 6
smoothSolver:  Solving for Uy, Initial residual = 0.434672, Final residual = 0.0181197, No Iterations 3
Pressure gradient source: uncorrected Ubar = 1.00011, pressure gradient = 0.0039154
GAMG:  Solving for p, Initial residual = 0.0913392, Final residual = 0.00717894, No Iterations 6
time step continuity errors : sum local = 0.00013102, global = 4.4916e-18, cumulative = 5.52679e-17
Pressure gradient source: uncorrected Ubar = 1.00001, pressure gradient = 0.00524188
smoothSolver:  Solving for omega, Initial residual = 2.04951e-05, Final residual = 9.52038e-06, No Iterations 1
smoothSolver:  Solving for k, Initial residual = 0.00828177, Final residual = 0.000758816, No Iterations 4
ExecutionTime = 0.047433 s  ClockTime = 0 s

Time = 18s

smoothSolver:  Solving for Ux, Initial residual = 0.00582833, Final residual = 0.000463949, No Iterations 6
smoothSolver:  Solving for Uy, Initial residual = 0.448189, Final residual = 0.0189158, No Iterations 3
Pressure gradient source: uncorrected Ubar = 1.0001, pressure gradient = 0.00386437
GAMG:  Solving for p, Initial residual = 0.0897669, Final residual = 0.00794474, No Iterations 4
time step continuity errors : sum local = 0.00013647, global = 4.28681e-18, cumulative = 5.95547e-17
Pressure gradient source: uncorrected Ubar = 1.00001, pressure gradient = 0.00512806
smoothSolver:  Solving for omega, Initial residual = 1.82869e-05, Final residual = 8.37791e-06, No Iterations 1
smoothSolver:  Solving for k, Initial residual = 0.00729931, Final residual = 0.000724916, No Iterations 4
ExecutionTime = 0.049476 s  ClockTime = 0 s

Time = 19s

smoothSolver:  Solving for Ux, Initial residual = 0.00552789, Final residual = 0.00044742, No Iterations 6
smoothSolver:  Solving for Uy, Initial residual = 0.526109, Final residual = 0.0235262, No Iterations 3
Pressure gradient source: uncorrected Ubar = 1.00009, pressure gradient = 0.00392463
GAMG:  Solving for p, Initial residual = 0.0908599, Final residual = 0.00839911, No Iterations 4
time step continuity errors : sum local = 0.000127036, global = -4.54221e-18, cumulative = 5.50124e-17
Pressure gradient source: uncorrected Ubar = 1.00001, pressure gradient = 0.00502978
smoothSolver:  Solving for omega, Initial residual = 1.68578e-05, Final residual = 8.56841e-06, No Iterations 1
smoothSolver:  Solving for k, Initial residual = 0.0067501, Final residual = 0.000431692, No Iterations 5
ExecutionTime = 0.051475 s  ClockTime = 0 s

Time = 20s

smoothSolver:  Solving for Ux, Initial residual = 0.00522621, Final residual = 0.000431666, No Iterations 6
smoothSolver:  Solving for Uy, Initial residual = 0.595588, Final residual = 0.0272306, No Iterations 3
Pressure gradient source: uncorrected Ubar = 1.00005, pressure gradient = 0.00433547
GAMG:  Solving for p, Initial residual = 0.0907632, Final residual = 0.00750987, No Iterations 4
time step continuity errors : sum local = 0.000102927, global = 7.16166e-19, cumulative = 5.57286e-17
Pressure gradient source: uncorrected Ubar = 1, pressure gradient = 0.00499132
smoothSolver:  Solving for omega, Initial residual = 1.54275e-05, Final residual = 8.36871e-06, No Iterations 1
smoothSolver:  Solving for k, Initial residual = 0.00603626, Final residual = 0.000361446, No Iterations 5
ExecutionTime = 0.053423 s  ClockTime = 0 s

Time = 21s

smoothSolver:  Solving for Ux, Initial residual = 0.00496033, Final residual = 0.000415636, No Iterations 6
smoothSolver:  Solving for Uy, Initial residual = 0.614482, Final residual = 0.0279407, No Iterations 3
Pressure gradient source: uncorrected Ubar = 1.00004, pressure gradient = 0.0043905
GAMG:  Solving for p, Initial residual = 0.0889878, Final residual = 0.00678189, No Iterations 4
time step continuity errors : sum local = 8.20128e-05, global = -9.45207e-18, cumulative = 4.62765e-17
Pressure gradient source: uncorrected Ubar = 1, pressure gradient = 0.00496159
smoothSolver:  Solving for omega, Initial residual = 1.44667e-05, Final residual = 7.28187e-06, No Iterations 1
smoothSolver:  Solving for k, Initial residual = 0.0056268, Final residual = 0.000393904, No Iterations 5
ExecutionTime = 0.055353 s  ClockTime = 0 s

Time = 22s

smoothSolver:  Solving for Ux, Initial residual = 0.00474609, Final residual = 0.000401908, No Iterations 6
smoothSolver:  Solving for Uy, Initial residual = 0.610581, Final residual = 0.0275468, No Iterations 3
Pressure gradient source: uncorrected Ubar = 1.00004, pressure gradient = 0.00443996
GAMG:  Solving for p, Initial residual = 0.0865209, Final residual = 0.00586223, No Iterations 4
time step continuity errors : sum local = 6.25862e-05, global = -7.01767e-19, cumulative = 4.55748e-17
Pressure gradient source: uncorrected Ubar = 1, pressure gradient = 0.0049375
smoothSolver:  Solving for omega, Initial residual = 1.31556e-05, Final residual = 6.98594e-06, No Iterations 1
smoothSolver:  Solving for k, Initial residual = 0.00498004, Final residual = 0.000313769, No Iterations 5
ExecutionTime = 0.057459 s  ClockTime = 0 s

Time = 23s

smoothSolver:  Solving for Ux, Initial residual = 0.00453184, Final residual = 0.000388693, No Iterations 6
smoothSolver:  Solving for Uy, Initial residual = 0.565197, Final residual = 0.0251361, No Iterations 3
Pressure gradient source: uncorrected Ubar = 1.00003, pressure gradient = 0.00457812
GAMG:  Solving for p, Initial residual = 0.0866315, Final residual = 0.00512078, No Iterations 4
time step continuity errors : sum local = 4.84483e-05, global = -2.30099e-18, cumulative = 4.32738e-17
Pressure gradient source: uncorrected Ubar = 1, pressure gradient = 0.00493121
smoothSolver:  Solving for omega, Initial residual = 1.24711e-05, Final residual = 6.89001e-06, No Iterations 1
smoothSolver:  Solving for k, Initial residual = 0.00444121, Final residual = 0.000411393, No Iterations 4
ExecutionTime = 0.060062 s  ClockTime = 0 s

Time = 24s

smoothSolver:  Solving for Ux, Initial residual = 0.00431856, Final residual = 0.000374607, No Iterations 6
smoothSolver:  Solving for Uy, Initial residual = 0.509204, Final residual = 0.0223694, No Iterations 3
Pressure gradient source: uncorrected Ubar = 1.00002, pressure gradient = 0.00464437
GAMG:  Solving for p, Initial residual = 0.0857091, Final residual = 0.00519836, No Iterations 4
time step continuity errors : sum local = 4.19209e-05, global = 5.3668e-18, cumulative = 4.86406e-17
Pressure gradient source: uncorrected Ubar = 1, pressure gradient = 0.00493127
smoothSolver:  Solving for omega, Initial residual = 1.15814e-05, Final residual = 6.11758e-06, No Iterations 1
smoothSolver:  Solving for k, Initial residual = 0.00421192, Final residual = 0.000254121, No Iterations 5
ExecutionTime = 0.062095 s  ClockTime = 0 s

Time = 25s

smoothSolver:  Solving for Ux, Initial residual = 0.00413144, Final residual = 0.000361813, No Iterations 6
smoothSolver:  Solving for Uy, Initial residual = 0.464826, Final residual = 0.0201138, No Iterations 3
Pressure gradient source: uncorrected Ubar = 1.00001, pressure gradient = 0.00473474
GAMG:  Solving for p, Initial residual = 0.0831515, Final residual = 0.00483562, No Iterations 4
time step continuity errors : sum local = 3.3361e-05, global = -2.91377e-18, cumulative = 4.57268e-17
Pressure gradient source: uncorrected Ubar = 0.999999, pressure gradient = 0.00493864
smoothSolver:  Solving for omega, Initial residual = 1.10191e-05, Final residual = 5.77422e-06, No Iterations 1
smoothSolver:  Solving for k, Initial residual = 0.00389765, Final residual = 0.000253033, No Iterations 5
ExecutionTime = 0.064094 s  ClockTime = 0 s

Time = 26s

smoothSolver:  Solving for Ux, Initial residual = 0.00394564, Final residual = 0.000348731, No Iterations 6
smoothSolver:  Solving for Uy, Initial residual = 0.434711, Final residual = 0.0185206, No Iterations 3
Pressure gradient source: uncorrected Ubar = 1.00001, pressure gradient = 0.00479118
GAMG:  Solving for p, Initial residual = 0.0841513, Final residual = 0.00439922, No Iterations 4
time step continuity errors : sum local = 2.6006e-05, global = -6.43852e-18, cumulative = 3.92883e-17
Pressure gradient source: uncorrected Ubar = 0.999999, pressure gradient = 0.00495013
smoothSolver:  Solving for omega, Initial residual = 1.05189e-05, Final residual = 5.79334e-06, No Iterations 1
smoothSolver:  Solving for k, Initial residual = 0.00359915, Final residual = 0.000220996, No Iterations 5
ExecutionTime = 0.06602 s  ClockTime = 0 s

Time = 27s

smoothSolver:  Solving for Ux, Initial residual = 0.00377314, Final residual = 0.000335949, No Iterations 6
smoothSolver:  Solving for Uy, Initial residual = 0.419643, Final residual = 0.0181943, No Iterations 3
Pressure gradient source: uncorrected Ubar = 1.00001, pressure gradient = 0.00484104
GAMG:  Solving for p, Initial residual = 0.083486, Final residual = 0.00381432, No Iterations 4
time step continuity errors : sum local = 1.94702e-05, global = 5.78799e-18, cumulative = 4.50763e-17
Pressure gradient source: uncorrected Ubar = 0.999999, pressure gradient = 0.00496349
smoothSolver:  Solving for omega, Initial residual = 1.00319e-05, Final residual = 5.50418e-06, No Iterations 1
smoothSolver:  Solving for k, Initial residual = 0.00344364, Final residual = 0.000209528, No Iterations 5
ExecutionTime = 0.067956 s  ClockTime = 0 s

Time = 28s

smoothSolver:  Solving for Ux, Initial residual = 0.0036615, Final residual = 0.000323223, No Iterations 6
smoothSolver:  Solving for Uy, Initial residual = 0.420853, Final residual = 0.0179772, No Iterations 3
Pressure gradient source: uncorrected Ubar = 1.00001, pressure gradient = 0.00487316
GAMG:  Solving for p, Initial residual = 0.0807925, Final residual = 0.00794366, No Iterations 3
time step continuity errors : sum local = 3.43319e-05, global = 7.9314e-18, cumulative = 5.30077e-17
Pressure gradient source: uncorrected Ubar = 0.999999, pressure gradient = 0.00497605
smoothSolver:  Solving for omega, Initial residual = 9.5488e-06, Final residual = 9.5488e-06, No Iterations 0
smoothSolver:  Solving for k, Initial residual = 0.00322586, Final residual = 0.000314107, No Iterations 4
ExecutionTime = 0.069863 s  ClockTime = 0 s

Time = 29s

smoothSolver:  Solving for Ux, Initial residual = 0.00356772, Final residual = 0.000310735, No Iterations 6
smoothSolver:  Solving for Uy, Initial residual = 0.446794, Final residual = 0.0190113, No Iterations 3
Pressure gradient source: uncorrected Ubar = 1.00001, pressure gradient = 0.00488408
GAMG:  Solving for p, Initial residual = 0.0800317, Final residual = 0.00785265, No Iterations 3
time step continuity errors : sum local = 2.92932e-05, global = 5.60471e-19, cumulative = 5.35682e-17
Pressure gradient source: uncorrected Ubar = 0.999999, pressure gradient = 0.00498572
smoothSolver:  Solving for omega, Initial residual = 1.12983e-05, Final residual = 5.66339e-06, No Iterations 1
smoothSolver:  Solving for k, Initial residual = 0.00307433, Final residual = 0.000193804, No Iterations 5
ExecutionTime = 0.071803 s  ClockTime = 0 s

Time = 30s

smoothSolver:  Solving for Ux, Initial residual = 0.00346739, Final residual = 0.00029927, No Iterations 6
smoothSolver:  Solving for Uy, Initial residual = 0.445915, Final residual = 0.0192878, No Iterations 3
Pressure gradient source: uncorrected Ubar = 1, pressure gradient = 0.00495386
GAMG:  Solving for p, Initial residual = 0.0826962, Final residual = 0.00794572, No Iterations 3
time step continuity errors : sum local = 2.51679e-05, global = 6.52141e-18, cumulative = 6.00896e-17
Pressure gradient source: uncorrected Ubar = 0.999999, pressure gradient = 0.00500075
smoothSolver:  Solving for omega, Initial residual = 9.98927e-06, Final residual = 9.98927e-06, No Iterations 0
smoothSolver:  Solving for k, Initial residual = 0.002922, Final residual = 0.000187083, No Iterations 5
ExecutionTime = 0.073885 s  ClockTime = 0 s

Time = 31s

smoothSolver:  Solving for Ux, Initial residual = 0.00336708, Final residual = 0.00028678, No Iterations 6
smoothSolver:  Solving for Uy, Initial residual = 0.436545, Final residual = 0.0187472, No Iterations 3
Pressure gradient source: uncorrected Ubar = 1, pressure gradient = 0.00493996
GAMG:  Solving for p, Initial residual = 0.0830012, Final residual = 0.00810133, No Iterations 3
time step continuity errors : sum local = 2.16638e-05, global = 2.05458e-18, cumulative = 6.21442e-17
Pressure gradient source: uncorrected Ubar = 0.999999, pressure gradient = 0.00500933
smoothSolver:  Solving for omega, Initial residual = 1.16483e-05, Final residual = 6.11163e-06, No Iterations 1
smoothSolver:  Solving for k, Initial residual = 0.00269655, Final residual = 0.000262649, No Iterations 4
ExecutionTime = 0.076393 s  ClockTime = 0 s

Time = 32s

smoothSolver:  Solving for Ux, Initial residual = 0.00326933, Final residual = 0.000276543, No Iterations 6
smoothSolver:  Solving for Uy, Initial residual = 0.421012, Final residual = 0.0180322, No Iterations 3
Pressure gradient source: uncorrected Ubar = 0.999995, pressure gradient = 0.00509112
GAMG:  Solving for p, Initial residual = 0.0812608, Final residual = 0.00233213, No Iterations 4
time step continuity errors : sum local = 5.38647e-06, global = -1.36806e-18, cumulative = 6.07761e-17
Pressure gradient source: uncorrected Ubar = 0.999998, pressure gradient = 0.00503483
smoothSolver:  Solving for omega, Initial residual = 1.02248e-05, Final residual = 5.62021e-06, No Iterations 1
smoothSolver:  Solving for k, Initial residual = 0.00248812, Final residual = 0.000244062, No Iterations 4
ExecutionTime = 0.078428 s  ClockTime = 0 s

Time = 33s

smoothSolver:  Solving for Ux, Initial residual = 0.00316729, Final residual = 0.000266153, No Iterations 6
smoothSolver:  Solving for Uy, Initial residual = 0.387853, Final residual = 0.0168643, No Iterations 3
Pressure gradient source: uncorrected Ubar = 0.999995, pressure gradient = 0.00510785
GAMG:  Solving for p, Initial residual = 0.0812247, Final residual = 0.00305927, No Iterations 4
time step continuity errors : sum local = 6.19054e-06, global = -3.66855e-18, cumulative = 5.71075e-17
Pressure gradient source: uncorrected Ubar = 0.999999, pressure gradient = 0.00505706
smoothSolver:  Solving for omega, Initial residual = 9.65999e-06, Final residual = 9.65999e-06, No Iterations 0
smoothSolver:  Solving for k, Initial residual = 0.00241571, Final residual = 0.000157246, No Iterations 5
ExecutionTime = 0.080455 s  ClockTime = 0 s

Time = 34s

smoothSolver:  Solving for Ux, Initial residual = 0.00306908, Final residual = 0.000254563, No Iterations 6
smoothSolver:  Solving for Uy, Initial residual = 0.361555, Final residual = 0.0163136, No Iterations 3
Pressure gradient source: uncorrected Ubar = 1, pressure gradient = 0.00504278
GAMG:  Solving for p, Initial residual = 0.08255, Final residual = 0.00460842, No Iterations 4
time step continuity errors : sum local = 7.77245e-06, global = 1.16287e-18, cumulative = 5.82704e-17
Pressure gradient source: uncorrected Ubar = 0.999999, pressure gradient = 0.00506539
smoothSolver:  Solving for omega, Initial residual = 1.12849e-05, Final residual = 5.7756e-06, No Iterations 1
smoothSolver:  Solving for k, Initial residual = 0.00221856, Final residual = 0.000137425, No Iterations 5
ExecutionTime = 0.08239 s  ClockTime = 0 s

Time = 35s

smoothSolver:  Solving for Ux, Initial residual = 0.0029693, Final residual = 0.000244842, No Iterations 6
smoothSolver:  Solving for Uy, Initial residual = 0.350484, Final residual = 0.0158315, No Iterations 3
Pressure gradient source: uncorrected Ubar = 0.999996, pressure gradient = 0.00513703
GAMG:  Solving for p, Initial residual = 0.0906287, Final residual = 0.00641597, No Iterations 4
time step continuity errors : sum local = 8.87411e-06, global = 3.1048e-18, cumulative = 6.13752e-17
Pressure gradient source: uncorrected Ubar = 0.999999, pressure gradient = 0.0050833
smoothSolver:  Solving for omega, Initial residual = 9.66826e-06, Final residual = 9.66826e-06, No Iterations 0
smoothSolver:  Solving for k, Initial residual = 0.0020655, Final residual = 0.000192183, No Iterations 4
ExecutionTime = 0.08433 s  ClockTime = 0 s

Time = 36s

smoothSolver:  Solving for Ux, Initial residual = 0.00288282, Final residual = 0.000234992, No Iterations 6
smoothSolver:  Solving for Uy, Initial residual = 0.331898, Final residual = 0.014471, No Iterations 3
Pressure gradient source: uncorrected Ubar = 0.999994, pressure gradient = 0.00518816
GAMG:  Solving for p, Initial residual = 0.089781, Final residual = 0.00777417, No Iterations 4
time step continuity errors : sum local = 9.34646e-06, global = -7.51745e-19, cumulative = 6.06235e-17
Pressure gradient source: uncorrected Ubar = 0.999999, pressure gradient = 0.00510405
smoothSolver:  Solving for omega, Initial residual = 1.10808e-05, Final residual = 5.85526e-06, No Iterations 1
smoothSolver:  Solving for k, Initial residual = 0.00195292, Final residual = 0.000192705, No Iterations 4
ExecutionTime = 0.086249 s  ClockTime = 0 s

Time = 37s

smoothSolver:  Solving for Ux, Initial residual = 0.00279331, Final residual = 0.000226787, No Iterations 6
smoothSolver:  Solving for Uy, Initial residual = 0.308398, Final residual = 0.0133457, No Iterations 3
Pressure gradient source: uncorrected Ubar = 0.99999, pressure gradient = 0.00527154
GAMG:  Solving for p, Initial residual = 0.0805033, Final residual = 0.00786117, No Iterations 4
time step continuity errors : sum local = 8.73015e-06, global = 5.57125e-18, cumulative = 6.61947e-17
Pressure gradient source: uncorrected Ubar = 0.999998, pressure gradient = 0.00513143
smoothSolver:  Solving for omega, Initial residual = 9.68274e-06, Final residual = 9.68274e-06, No Iterations 0
smoothSolver:  Solving for k, Initial residual = 0.00189238, Final residual = 0.000117265, No Iterations 5
ExecutionTime = 0.088192 s  ClockTime = 0 s

Time = 38s

smoothSolver:  Solving for Ux, Initial residual = 0.0027017, Final residual = 0.000216718, No Iterations 6
smoothSolver:  Solving for Uy, Initial residual = 0.301718, Final residual = 0.0131295, No Iterations 3
Pressure gradient source: uncorrected Ubar = 0.999996, pressure gradient = 0.00519857
GAMG:  Solving for p, Initial residual = 0.0771429, Final residual = 0.00611891, No Iterations 6
time step continuity errors : sum local = 6.11657e-06, global = 8.68916e-18, cumulative = 7.48839e-17
Pressure gradient source: uncorrected Ubar = 0.999999, pressure gradient = 0.00514381
smoothSolver:  Solving for omega, Initial residual = 1.11239e-05, Final residual = 5.90519e-06, No Iterations 1
smoothSolver:  Solving for k, Initial residual = 0.00178396, Final residual = 0.00013339, No Iterations 5
ExecutionTime = 0.090316 s  ClockTime = 0 s

Time = 39s

smoothSolver:  Solving for Ux, Initial residual = 0.00260985, Final residual = 0.000208972, No Iterations 6
smoothSolver:  Solving for Uy, Initial residual = 0.27077, Final residual = 0.0114443, No Iterations 3
Pressure gradient source: uncorrected Ubar = 0.999991, pressure gradient = 0.00529459
GAMG:  Solving for p, Initial residual = 0.0696586, Final residual = 0.00630196, No Iterations 4
time step continuity errors : sum local = 5.74914e-06, global = 6.89342e-18, cumulative = 8.17773e-17
Pressure gradient source: uncorrected Ubar = 0.999999, pressure gradient = 0.00516568
smoothSolver:  Solving for omega, Initial residual = 9.49532e-06, Final residual = 9.49532e-06, No Iterations 0
smoothSolver:  Solving for k, Initial residual = 0.00170298, Final residual = 0.000109725, No Iterations 5
ExecutionTime = 0.092833 s  ClockTime = 0 s

Time = 40s

smoothSolver:  Solving for Ux, Initial residual = 0.00252759, Final residual = 0.000199535, No Iterations 6
smoothSolver:  Solving for Uy, Initial residual = 0.276186, Final residual = 0.0137268, No Iterations 3
Pressure gradient source: uncorrected Ubar = 0.999998, pressure gradient = 0.00520069
GAMG:  Solving for p, Initial residual = 0.0648315, Final residual = 0.00596074, No Iterations 4
time step continuity errors : sum local = 4.97018e-06, global = -2.96374e-18, cumulative = 7.88136e-17
Pressure gradient source: uncorrected Ubar = 1, pressure gradient = 0.00517066
smoothSolver:  Solving for omega, Initial residual = 1.08076e-05, Final residual = 5.62055e-06, No Iterations 1
smoothSolver:  Solving for k, Initial residual = 0.00156431, Final residual = 9.43897e-05, No Iterations 5
ExecutionTime = 0.094906 s  ClockTime = 0 s

Time = 41s

smoothSolver:  Solving for Ux, Initial residual = 0.00244706, Final residual = 0.000193145, No Iterations 6
smoothSolver:  Solving for Uy, Initial residual = 0.277339, Final residual = 0.0138198, No Iterations 3
Pressure gradient source: uncorrected Ubar = 0.99999, pressure gradient = 0.00534222
GAMG:  Solving for p, Initial residual = 0.0583906, Final residual = 0.00475374, No Iterations 4
time step continuity errors : sum local = 3.72485e-06, global = -3.9985e-18, cumulative = 7.48151e-17
Pressure gradient source: uncorrected Ubar = 0.999999, pressure gradient = 0.00519252
smoothSolver:  Solving for omega, Initial residual = 9.31395e-06, Final residual = 9.31395e-06, No Iterations 0
smoothSolver:  Solving for k, Initial residual = 0.00157392, Final residual = 0.000116771, No Iterations 5
ExecutionTime = 0.096868 s  ClockTime = 0 s

Time = 42s

smoothSolver:  Solving for Ux, Initial residual = 0.00236551, Final residual = 0.000184607, No Iterations 6
smoothSolver:  Solving for Uy, Initial residual = 0.28143, Final residual = 0.0155455, No Iterations 3
Pressure gradient source: uncorrected Ubar = 0.999995, pressure gradient = 0.00528091
GAMG:  Solving for p, Initial residual = 0.0526504, Final residual = 0.00353971, No Iterations 4
time step continuity errors : sum local = 2.5538e-06, global = -5.27299e-18, cumulative = 6.95421e-17
Pressure gradient source: uncorrected Ubar = 0.999999, pressure gradient = 0.00520203
smoothSolver:  Solving for omega, Initial residual = 1.05368e-05, Final residual = 5.61269e-06, No Iterations 1
smoothSolver:  Solving for k, Initial residual = 0.00143135, Final residual = 8.34266e-05, No Iterations 5
ExecutionTime = 0.098825 s  ClockTime = 0 s

Time = 43s

smoothSolver:  Solving for Ux, Initial residual = 0.00230555, Final residual = 0.000179892, No Iterations 6
smoothSolver:  Solving for Uy, Initial residual = 0.262303, Final residual = 0.014926, No Iterations 3
Pressure gradient source: uncorrected Ubar = 0.999983, pressure gradient = 0.00549249
GAMG:  Solving for p, Initial residual = 0.0503975, Final residual = 0.00421443, No Iterations 3
time step continuity errors : sum local = 2.63212e-06, global = 6.05688e-19, cumulative = 7.01478e-17
Pressure gradient source: uncorrected Ubar = 0.999998, pressure gradient = 0.00523742
smoothSolver:  Solving for omega, Initial residual = 9.05694e-06, Final residual = 9.05694e-06, No Iterations 0
smoothSolver:  Solving for k, Initial residual = 0.00144878, Final residual = 0.000139194, No Iterations 4
ExecutionTime = 0.100742 s  ClockTime = 0 s

Time = 44s

smoothSolver:  Solving for Ux, Initial residual = 0.00222552, Final residual = 0.000172445, No Iterations 6
smoothSolver:  Solving for Uy, Initial residual = 0.254794, Final residual = 0.0140815, No Iterations 3
Pressure gradient source: uncorrected Ubar = 0.999993, pressure gradient = 0.00536279
GAMG:  Solving for p, Initial residual = 0.050012, Final residual = 0.00482219, No Iterations 3
time step continuity errors : sum local = 2.7474e-06, global = 6.04051e-18, cumulative = 7.61883e-17
Pressure gradient source: uncorrected Ubar = 0.999999, pressure gradient = 0.00524985
smoothSolver:  Solving for omega, Initial residual = 1.01708e-05, Final residual = 5.58579e-06, No Iterations 1
smoothSolver:  Solving for k, Initial residual = 0.00133539, Final residual = 8.49401e-05, No Iterations 5
ExecutionTime = 0.102669 s  ClockTime = 0 s

Time = 45s

smoothSolver:  Solving for Ux, Initial residual = 0.0021799, Final residual = 0.000168115, No Iterations 6
smoothSolver:  Solving for Uy, Initial residual = 0.233637, Final residual = 0.0132468, No Iterations 3
Pressure gradient source: uncorrected Ubar = 0.999988, pressure gradient = 0.00546807
GAMG:  Solving for p, Initial residual = 0.0507761, Final residual = 0.00454054, No Iterations 3
time step continuity errors : sum local = 2.37107e-06, global = 4.44229e-18, cumulative = 8.06306e-17
Pressure gradient source: uncorrected Ubar = 0.999999, pressure gradient = 0.00527361
smoothSolver:  Solving for omega, Initial residual = 8.71507e-06, Final residual = 8.71507e-06, No Iterations 0
smoothSolver:  Solving for k, Initial residual = 0.00135963, Final residual = 9.01386e-05, No Iterations 5
ExecutionTime = 0.104559 s  ClockTime = 0 s

Time = 46s

smoothSolver:  Solving for Ux, Initial residual = 0.00209533, Final residual = 0.000161122, No Iterations 6
smoothSolver:  Solving for Uy, Initial residual = 0.209784, Final residual = 0.0108756, No Iterations 3
Pressure gradient source: uncorrected Ubar = 0.999994, pressure gradient = 0.0053832
GAMG:  Solving for p, Initial residual = 0.0540005, Final residual = 0.00442826, No Iterations 3
time step continuity errors : sum local = 2.11322e-06, global = -5.36644e-18, cumulative = 7.52641e-17
Pressure gradient source: uncorrected Ubar = 1, pressure gradient = 0.00528209
smoothSolver:  Solving for omega, Initial residual = 9.73554e-06, Final residual = 9.73554e-06, No Iterations 0
smoothSolver:  Solving for k, Initial residual = 0.00148455, Final residual = 0.00012698, No Iterations 5
ExecutionTime = 0.1066 s  ClockTime = 0 s

Time = 47s

smoothSolver:  Solving for Ux, Initial residual = 0.00201196, Final residual = 0.000153791, No Iterations 6
smoothSolver:  Solving for Uy, Initial residual = 0.210952, Final residual = 0.0113625, No Iterations 3
Pressure gradient source: uncorrected Ubar = 0.999995, pressure gradient = 0.00536646
GAMG:  Solving for p, Initial residual = 0.0591664, Final residual = 0.00418386, No Iterations 3
time step continuity errors : sum local = 1.78366e-06, global = 4.34169e-19, cumulative = 7.56983e-17
Pressure gradient source: uncorrected Ubar = 1, pressure gradient = 0.00528633
smoothSolver:  Solving for omega, Initial residual = 1.06972e-05, Final residual = 5.49617e-06, No Iterations 1
smoothSolver:  Solving for k, Initial residual = 0.00133013, Final residual = 9.34667e-05, No Iterations 5
ExecutionTime = 0.108943 s  ClockTime = 0 s

Time = 48s

smoothSolver:  Solving for Ux, Initial residual = 0.00199277, Final residual = 0.000151276, No Iterations 6
smoothSolver:  Solving for Uy, Initial residual = 0.201909, Final residual = 0.00987234, No Iterations 3
Pressure gradient source: uncorrected Ubar = 0.999985, pressure gradient = 0.00555494
GAMG:  Solving for p, Initial residual = 0.0527769, Final residual = 0.00422134, No Iterations 5
time step continuity errors : sum local = 1.60571e-06, global = -3.55925e-18, cumulative = 7.2139e-17
Pressure gradient source: uncorrected Ubar = 0.999998, pressure gradient = 0.00531426
smoothSolver:  Solving for omega, Initial residual = 8.85221e-06, Final residual = 8.85221e-06, No Iterations 0
smoothSolver:  Solving for k, Initial residual = 0.00133313, Final residual = 9.81354e-05, No Iterations 5
ExecutionTime = 0.111167 s  ClockTime = 0 s

Time = 49s

smoothSolver:  Solving for Ux, Initial residual = 0.00191584, Final residual = 0.000144699, No Iterations 6
smoothSolver:  Solving for Uy, Initial residual = 0.225274, Final residual = 0.0141626, No Iterations 3
Pressure gradient source: uncorrected Ubar = 0.999994, pressure gradient = 0.0054246
GAMG:  Solving for p, Initial residual = 0.059177, Final residual = 0.00540945, No Iterations 3
time step continuity errors : sum local = 1.89264e-06, global = 2.13176e-18, cumulative = 7.42708e-17
Pressure gradient source: uncorrected Ubar = 1, pressure gradient = 0.00532059
smoothSolver:  Solving for omega, Initial residual = 9.52542e-06, Final residual = 9.52542e-06, No Iterations 0
smoothSolver:  Solving for k, Initial residual = 0.00148433, Final residual = 0.000107755, No Iterations 5
ExecutionTime = 0.113119 s  ClockTime = 0 s

Time = 50s

smoothSolver:  Solving for Ux, Initial residual = 0.0018454, Final residual = 0.000138342, No Iterations 6
smoothSolver:  Solving for Uy, Initial residual = 0.205835, Final residual = 0.0136583, No Iterations 3
Pressure gradient source: uncorrected Ubar = 0.999994, pressure gradient = 0.00543005
GAMG:  Solving for p, Initial residual = 0.051382, Final residual = 0.0039262, No Iterations 4
time step continuity errors : sum local = 1.33754e-06, global = -6.96783e-18, cumulative = 6.7303e-17
Pressure gradient source: uncorrected Ubar = 1, pressure gradient = 0.0053263
smoothSolver:  Solving for omega, Initial residual = 1.03622e-05, Final residual = 5.61946e-06, No Iterations 1
smoothSolver:  Solving for k, Initial residual = 0.00140562, Final residual = 0.000122985, No Iterations 5
ExecutionTime = 0.115088 s  ClockTime = 0 s

Time = 51s

smoothSolver:  Solving for Ux, Initial residual = 0.00182215, Final residual = 0.000136591, No Iterations 6
smoothSolver:  Solving for Uy, Initial residual = 0.156679, Final residual = 0.0100212, No Iterations 3
Pressure gradient source: uncorrected Ubar = 0.999984, pressure gradient = 0.00561942
GAMG:  Solving for p, Initial residual = 0.048423, Final residual = 0.00343558, No Iterations 5
time step continuity errors : sum local = 1.12136e-06, global = -6.97149e-18, cumulative = 6.03315e-17
Pressure gradient source: uncorrected Ubar = 0.999998, pressure gradient = 0.00535579
smoothSolver:  Solving for omega, Initial residual = 8.58589e-06, Final residual = 8.58589e-06, No Iterations 0
smoothSolver:  Solving for k, Initial residual = 0.00135692, Final residual = 0.000112611, No Iterations 5
ExecutionTime = 0.117034 s  ClockTime = 0 s

Time = 52s

smoothSolver:  Solving for Ux, Initial residual = 0.00175405, Final residual = 0.000130611, No Iterations 6
smoothSolver:  Solving for Uy, Initial residual = 0.152405, Final residual = 0.0108598, No Iterations 3
Pressure gradient source: uncorrected Ubar = 0.999996, pressure gradient = 0.00543246
GAMG:  Solving for p, Initial residual = 0.0466592, Final residual = 0.00438244, No Iterations 3
time step continuity errors : sum local = 1.35004e-06, global = 1.15553e-17, cumulative = 7.18868e-17
Pressure gradient source: uncorrected Ubar = 1, pressure gradient = 0.00535602
smoothSolver:  Solving for omega, Initial residual = 9.29054e-06, Final residual = 9.29054e-06, No Iterations 0
smoothSolver:  Solving for k, Initial residual = 0.00152937, Final residual = 0.00010263, No Iterations 5
ExecutionTime = 0.118931 s  ClockTime = 0 s

Time = 53s

smoothSolver:  Solving for Ux, Initial residual = 0.0016918, Final residual = 0.00012501, No Iterations 6
smoothSolver:  Solving for Uy, Initial residual = 0.115856, Final residual = 0.00656744, No Iterations 3
Pressure gradient source: uncorrected Ubar = 0.999995, pressure gradient = 0.00544309
GAMG:  Solving for p, Initial residual = 0.0495247, Final residual = 0.00396124, No Iterations 6
time step continuity errors : sum local = 1.14112e-06, global = 1.00302e-17, cumulative = 8.1917e-17
Pressure gradient source: uncorrected Ubar = 1, pressure gradient = 0.00535731
smoothSolver:  Solving for omega, Initial residual = 9.99372e-06, Final residual = 9.99372e-06, No Iterations 0
smoothSolver:  Solving for k, Initial residual = 0.00174961, Final residual = 0.00012445, No Iterations 5
ExecutionTime = 0.120937 s  ClockTime = 0 s

Time = 54s

smoothSolver:  Solving for Ux, Initial residual = 0.00162625, Final residual = 0.000119304, No Iterations 6
smoothSolver:  Solving for Uy, Initial residual = 0.163126, Final residual = 0.012222, No Iterations 3
Pressure gradient source: uncorrected Ubar = 0.999996, pressure gradient = 0.00543291
GAMG:  Solving for p, Initial residual = 0.0434642, Final residual = 0.00321888, No Iterations 6
time step continuity errors : sum local = 9.8466e-07, global = -6.04842e-18, cumulative = 7.58686e-17
Pressure gradient source: uncorrected Ubar = 1, pressure gradient = 0.00535679
smoothSolver:  Solving for omega, Initial residual = 1.06764e-05, Final residual = 5.60648e-06, No Iterations 1
smoothSolver:  Solving for k, Initial residual = 0.00162176, Final residual = 0.000112177, No Iterations 5
ExecutionTime = 0.123051 s  ClockTime = 0 s

Time = 55s

smoothSolver:  Solving for Ux, Initial residual = 0.00161188, Final residual = 0.000118327, No Iterations 6
smoothSolver:  Solving for Uy, Initial residual = 0.176369, Final residual = 0.0149539, No Iterations 3
Pressure gradient source: uncorrected Ubar = 0.999984, pressure gradient = 0.00564289
GAMG:  Solving for p, Initial residual = 0.0522745, Final residual = 0.00361657, No Iterations 5
time step continuity errors : sum local = 1.00774e-06, global = -4.51182e-18, cumulative = 7.13568e-17
Pressure gradient source: uncorrected Ubar = 0.999999, pressure gradient = 0.00538383
smoothSolver:  Solving for omega, Initial residual = 8.6451e-06, Final residual = 8.6451e-06, No Iterations 0
smoothSolver:  Solving for k, Initial residual = 0.00158769, Final residual = 0.000107532, No Iterations 6
ExecutionTime = 0.125305 s  ClockTime = 0 s

Time = 56s

smoothSolver:  Solving for Ux, Initial residual = 0.00154681, Final residual = 0.000112839, No Iterations 6
smoothSolver:  Solving for Uy, Initial residual = 0.179742, Final residual = 0.0140396, No Iterations 3
Pressure gradient source: uncorrected Ubar = 0.999998, pressure gradient = 0.00542895
GAMG:  Solving for p, Initial residual = 0.0419486, Final residual = 0.00340432, No Iterations 4
time step continuity errors : sum local = 9.72962e-07, global = -5.07408e-18, cumulative = 6.62827e-17
Pressure gradient source: uncorrected Ubar = 1, pressure gradient = 0.00537864
smoothSolver:  Solving for omega, Initial residual = 9.02228e-06, Final residual = 9.02228e-06, No Iterations 0
smoothSolver:  Solving for k, Initial residual = 0.00176499, Final residual = 0.000164696, No Iterations 5
ExecutionTime = 0.127637 s  ClockTime = 0 s

Time = 57s

smoothSolver:  Solving for Ux, Initial residual = 0.00148398, Final residual = 0.000107645, No Iterations 6
smoothSolver:  Solving for Uy, Initial residual = 0.145965, Final residual = 0.0107678, No Iterations 3
Pressure gradient source: uncorrected Ubar = 0.999995, pressure gradient = 0.00546344
GAMG:  Solving for p, Initial residual = 0.0369161, Final residual = 0.00316914, No Iterations 6
time step continuity errors : sum local = 8.90962e-07, global = 2.63815e-18, cumulative = 6.89208e-17
Pressure gradient source: uncorrected Ubar = 1, pressure gradient = 0.00537859
smoothSolver:  Solving for omega, Initial residual = 9.50032e-06, Final residual = 9.50032e-06, No Iterations 0
smoothSolver:  Solving for k, Initial residual = 0.00192981, Final residual = 0.000128074, No Iterations 5
ExecutionTime = 0.129686 s  ClockTime = 0 s

Time = 58s

smoothSolver:  Solving for Ux, Initial residual = 0.00142242, Final residual = 0.000102671, No Iterations 6
smoothSolver:  Solving for Uy, Initial residual = 0.139807, Final residual = 0.00984624, No Iterations 3
Pressure gradient source: uncorrected Ubar = 0.999995, pressure gradient = 0.00546629
GAMG:  Solving for p, Initial residual = 0.0363996, Final residual = 0.00268586, No Iterations 7
time step continuity errors : sum local = 7.25836e-07, global = -7.79201e-18, cumulative = 6.11288e-17
Pressure gradient source: uncorrected Ubar = 1, pressure gradient = 0.00537887
smoothSolver:  Solving for omega, Initial residual = 1.00017e-05, Final residual = 5.21977e-06, No Iterations 1
smoothSolver:  Solving for k, Initial residual = 0.0018347, Final residual = 0.000141945, No Iterations 5
ExecutionTime = 0.131743 s  ClockTime = 0 s

Time = 59s

smoothSolver:  Solving for Ux, Initial residual = 0.0014164, Final residual = 0.000102259, No Iterations 6
smoothSolver:  Solving for Uy, Initial residual = 0.130805, Final residual = 0.00720632, No Iterations 3
Pressure gradient source: uncorrected Ubar = 0.999985, pressure gradient = 0.00565287
GAMG:  Solving for p, Initial residual = 0.0454131, Final residual = 0.0037524, No Iterations 6
time step continuity errors : sum local = 1.06127e-06, global = -4.45015e-18, cumulative = 5.66787e-17
Pressure gradient source: uncorrected Ubar = 0.999999, pressure gradient = 0.00540373
smoothSolver:  Solving for omega, Initial residual = 8.3117e-06, Final residual = 8.3117e-06, No Iterations 0
smoothSolver:  Solving for k, Initial residual = 0.00176507, Final residual = 0.00016928, No Iterations 5
ExecutionTime = 0.133726 s  ClockTime = 0 s

Time = 60s

smoothSolver:  Solving for Ux, Initial residual = 0.0013586, Final residual = 9.76804e-05, No Iterations 6
smoothSolver:  Solving for Uy, Initial residual = 0.14008, Final residual = 0.00738882, No Iterations 3
Pressure gradient source: uncorrected Ubar = 0.999997, pressure gradient = 0.00546577
GAMG:  Solving for p, Initial residual = 0.0423921, Final residual = 0.00376833, No Iterations 6
time step continuity errors : sum local = 9.9345e-07, global = -1.17536e-17, cumulative = 4.49251e-17
Pressure gradient source: uncorrected Ubar = 1, pressure gradient = 0.00540047
smoothSolver:  Solving for omega, Initial residual = 8.68855e-06, Final residual = 8.68855e-06, No Iterations 0
smoothSolver:  Solving for k, Initial residual = 0.00197404, Final residual = 0.000188874, No Iterations 5
ExecutionTime = 0.135712 s  ClockTime = 0 s

Time = 61s

smoothSolver:  Solving for Ux, Initial residual = 0.00130203, Final residual = 9.31796e-05, No Iterations 6
smoothSolver:  Solving for Uy, Initial residual = 0.149006, Final residual = 0.00907126, No Iterations 3
Pressure gradient source: uncorrected Ubar = 0.999996, pressure gradient = 0.00547762
GAMG:  Solving for p, Initial residual = 0.0346506, Final residual = 0.00279536, No Iterations 6
time step continuity errors : sum local = 6.7566e-07, global = -8.49484e-18, cumulative = 3.64302e-17
Pressure gradient source: uncorrected Ubar = 1, pressure gradient = 0.00539934
smoothSolver:  Solving for omega, Initial residual = 9.11016e-06, Final residual = 9.11016e-06, No Iterations 0
smoothSolver:  Solving for k, Initial residual = 0.00214385, Final residual = 0.000181702, No Iterations 5
ExecutionTime = 0.137692 s  ClockTime = 0 s

Time = 62s

smoothSolver:  Solving for Ux, Initial residual = 0.00124506, Final residual = 8.85979e-05, No Iterations 6
smoothSolver:  Solving for Uy, Initial residual = 0.165955, Final residual = 0.0121155, No Iterations 3
Pressure gradient source: uncorrected Ubar = 0.999996, pressure gradient = 0.00547298
GAMG:  Solving for p, Initial residual = 0.0422222, Final residual = 0.00315867, No Iterations 6
time step continuity errors : sum local = 7.54787e-07, global = -3.14251e-18, cumulative = 3.32877e-17
Pressure gradient source: uncorrected Ubar = 1, pressure gradient = 0.00539785
smoothSolver:  Solving for omega, Initial residual = 9.51381e-06, Final residual = 9.51381e-06, No Iterations 0
smoothSolver:  Solving for k, Initial residual = 0.00230929, Final residual = 0.00017942, No Iterations 5
ExecutionTime = 0.139812 s  ClockTime = 0 s

Time = 63s

smoothSolver:  Solving for Ux, Initial residual = 0.00118755, Final residual = 8.41367e-05, No Iterations 6
smoothSolver:  Solving for Uy, Initial residual = 0.141747, Final residual = 0.00898806, No Iterations 3
Pressure gradient source: uncorrected Ubar = 0.999996, pressure gradient = 0.00546582
GAMG:  Solving for p, Initial residual = 0.0394658, Final residual = 0.00334968, No Iterations 6
time step continuity errors : sum local = 7.89768e-07, global = -4.65854e-18, cumulative = 2.86292e-17
Pressure gradient source: uncorrected Ubar = 1, pressure gradient = 0.00539579
smoothSolver:  Solving for omega, Initial residual = 9.88816e-06, Final residual = 9.88816e-06, No Iterations 0
smoothSolver:  Solving for k, Initial residual = 0.00253278, Final residual = 0.000229351, No Iterations 5
ExecutionTime = 0.142227 s  ClockTime = 0 s

Time = 64s

smoothSolver:  Solving for Ux, Initial residual = 0.0011317, Final residual = 7.98513e-05, No Iterations 6
smoothSolver:  Solving for Uy, Initial residual = 0.0937488, Final residual = 0.00462469, No Iterations 3
Pressure gradient source: uncorrected Ubar = 0.999995, pressure gradient = 0.0054818
GAMG:  Solving for p, Initial residual = 0.0324053, Final residual = 0.00279077, No Iterations 6
time step continuity errors : sum local = 6.56846e-07, global = -9.94121e-18, cumulative = 1.8688e-17
Pressure gradient source: uncorrected Ubar = 1, pressure gradient = 0.00539637
smoothSolver:  Solving for omega, Initial residual = 1.02325e-05, Final residual = 5.56943e-06, No Iterations 1
smoothSolver:  Solving for k, Initial residual = 0.00237096, Final residual = 0.000232548, No Iterations 5
ExecutionTime = 0.144476 s  ClockTime = 0 s

Time = 65s

smoothSolver:  Solving for Ux, Initial residual = 0.00111597, Final residual = 7.94497e-05, No Iterations 6
smoothSolver:  Solving for Uy, Initial residual = 0.136156, Final residual = 0.0066063, No Iterations 3
Pressure gradient source: uncorrected Ubar = 0.999986, pressure gradient = 0.00565076
GAMG:  Solving for p, Initial residual = 0.0521349, Final residual = 0.00436224, No Iterations 3
time step continuity errors : sum local = 9.32103e-07, global = -3.45335e-18, cumulative = 1.52346e-17
Pressure gradient source: uncorrected Ubar = 0.999999, pressure gradient = 0.00541927
smoothSolver:  Solving for omega, Initial residual = 8.27134e-06, Final residual = 8.27134e-06, No Iterations 0
smoothSolver:  Solving for k, Initial residual = 0.00220018, Final residual = 0.000204472, No Iterations 5
ExecutionTime = 0.146427 s  ClockTime = 0 s

Time = 66s

smoothSolver:  Solving for Ux, Initial residual = 0.00106315, Final residual = 7.53907e-05, No Iterations 6
smoothSolver:  Solving for Uy, Initial residual = 0.167154, Final residual = 0.00694156, No Iterations 3
Pressure gradient source: uncorrected Ubar = 0.999998, pressure gradient = 0.00545032
GAMG:  Solving for p, Initial residual = 0.0395796, Final residual = 0.00311292, No Iterations 3
time step continuity errors : sum local = 6.62267e-07, global = 4.45586e-18, cumulative = 1.96905e-17
Pressure gradient source: uncorrected Ubar = 1, pressure gradient = 0.00541273
smoothSolver:  Solving for omega, Initial residual = 8.47582e-06, Final residual = 8.47582e-06, No Iterations 0
smoothSolver:  Solving for k, Initial residual = 0.00234168, Final residual = 0.000200324, No Iterations 5
ExecutionTime = 0.148353 s  ClockTime = 0 s

Time = 67s

smoothSolver:  Solving for Ux, Initial residual = 0.00101247, Final residual = 7.1468e-05, No Iterations 6
smoothSolver:  Solving for Uy, Initial residual = 0.195126, Final residual = 0.011638, No Iterations 3
Pressure gradient source: uncorrected Ubar = 0.999997, pressure gradient = 0.00547337
GAMG:  Solving for p, Initial residual = 0.0494616, Final residual = 0.00441772, No Iterations 5
time step continuity errors : sum local = 8.95232e-07, global = -2.76826e-18, cumulative = 1.69222e-17
Pressure gradient source: uncorrected Ubar = 1, pressure gradient = 0.00541044
smoothSolver:  Solving for omega, Initial residual = 8.66924e-06, Final residual = 8.66924e-06, No Iterations 0
smoothSolver:  Solving for k, Initial residual = 0.00244813, Final residual = 0.000153487, No Iterations 5
ExecutionTime = 0.150372 s  ClockTime = 0 s

Time = 68s

smoothSolver:  Solving for Ux, Initial residual = 0.000963596, Final residual = 6.78429e-05, No Iterations 6
smoothSolver:  Solving for Uy, Initial residual = 0.152202, Final residual = 0.00897543, No Iterations 3
Pressure gradient source: uncorrected Ubar = 0.999996, pressure gradient = 0.00548594
GAMG:  Solving for p, Initial residual = 0.0605608, Final residual = 0.0048434, No Iterations 6
time step continuity errors : sum local = 1.07679e-06, global = -9.5745e-18, cumulative = 7.34773e-18
Pressure gradient source: uncorrected Ubar = 1, pressure gradient = 0.00541045
smoothSolver:  Solving for omega, Initial residual = 8.85723e-06, Final residual = 8.85723e-06, No Iterations 0
smoothSolver:  Solving for k, Initial residual = 0.00261317, Final residual = 0.000212871, No Iterations 5
ExecutionTime = 0.152421 s  ClockTime = 0 s

Time = 69s

smoothSolver:  Solving for Ux, Initial residual = 0.000911181, Final residual = 6.39664e-05, No Iterations 6
smoothSolver:  Solving for Uy, Initial residual = 0.156598, Final residual = 0.0109516, No Iterations 3
Pressure gradient source: uncorrected Ubar = 0.999997, pressure gradient = 0.00547113
GAMG:  Solving for p, Initial residual = 0.0483572, Final residual = 0.00335582, No Iterations 5
time step continuity errors : sum local = 6.05702e-07, global = 2.98543e-18, cumulative = 1.03332e-17
Pressure gradient source: uncorrected Ubar = 1, pressure gradient = 0.00540881
smoothSolver:  Solving for omega, Initial residual = 9.08539e-06, Final residual = 9.08539e-06, No Iterations 0
smoothSolver:  Solving for k, Initial residual = 0.00274748, Final residual = 0.000190809, No Iterations 6
ExecutionTime = 0.154399 s  ClockTime = 0 s

Time = 70s

smoothSolver:  Solving for Ux, Initial residual = 0.000855315, Final residual = 5.96052e-05, No Iterations 6
smoothSolver:  Solving for Uy, Initial residual = 0.123732, Final residual = 0.00856842, No Iterations 3
Pressure gradient source: uncorrected Ubar = 0.999999, pressure gradient = 0.00542887
GAMG:  Solving for p, Initial residual = 0.0335423, Final residual = 0.00208088, No Iterations 7
time step continuity errors : sum local = 3.89651e-07, global = 3.95137e-18, cumulative = 1.42845e-17
Pressure gradient source: uncorrected Ubar = 1, pressure gradient = 0.00540221
smoothSolver:  Solving for omega, Initial residual = 9.29471e-06, Final residual = 9.29471e-06, No Iterations 0
smoothSolver:  Solving for k, Initial residual = 0.00284719, Final residual = 0.000188206, No Iterations 6
ExecutionTime = 0.156536 s  ClockTime = 0 s

Time = 71s

smoothSolver:  Solving for Ux, Initial residual = 0.000798449, Final residual = 5.53478e-05, No Iterations 6
smoothSolver:  Solving for Uy, Initial residual = 0.129747, Final residual = 0.00952925, No Iterations 3
Pressure gradient source: uncorrected Ubar = 0.999998, pressure gradient = 0.00543415
GAMG:  Solving for p, Initial residual = 0.0337739, Final residual = 0.00247446, No Iterations 5
time step continuity errors : sum local = 4.86044e-07, global = -2.15983e-18, cumulative = 1.21247e-17
Pressure gradient source: uncorrected Ubar = 1, pressure gradient = 0.00539763
smoothSolver:  Solving for omega, Initial residual = 9.49146e-06, Final residual = 9.49146e-06, No Iterations 0
smoothSolver:  Solving for k, Initial residual = 0.00288764, Final residual = 0.000226843, No Iterations 5
ExecutionTime = 0.158932 s  ClockTime = 0 s

Time = 72s

smoothSolver:  Solving for Ux, Initial residual = 0.000749846, Final residual = 5.15998e-05, No Iterations 6
smoothSolver:  Solving for Uy, Initial residual = 0.12548, Final residual = 0.00755868, No Iterations 3
Pressure gradient source: uncorrected Ubar = 0.999998, pressure gradient = 0.0054244
GAMG:  Solving for p, Initial residual = 0.0480464, Final residual = 0.00452095, No Iterations 6
time step continuity errors : sum local = 8.70925e-07, global = -2.92795e-18, cumulative = 9.19675e-18
Pressure gradient source: uncorrected Ubar = 1, pressure gradient = 0.00539275
smoothSolver:  Solving for omega, Initial residual = 9.66858e-06, Final residual = 9.66858e-06, No Iterations 0
smoothSolver:  Solving for k, Initial residual = 0.00296394, Final residual = 0.000191738, No Iterations 5
ExecutionTime = 0.161182 s  ClockTime = 0 s

Time = 73s

smoothSolver:  Solving for Ux, Initial residual = 0.00069505, Final residual = 4.77812e-05, No Iterations 6
smoothSolver:  Solving for Uy, Initial residual = 0.177603, Final residual = 0.0127731, No Iterations 3
Pressure gradient source: uncorrected Ubar = 0.999998, pressure gradient = 0.00543017
GAMG:  Solving for p, Initial residual = 0.0532124, Final residual = 0.00452704, No Iterations 5
time step continuity errors : sum local = 8.4313e-07, global = 5.75637e-18, cumulative = 1.49531e-17
Pressure gradient source: uncorrected Ubar = 1, pressure gradient = 0.00538962
smoothSolver:  Solving for omega, Initial residual = 9.83064e-06, Final residual = 9.83064e-06, No Iterations 0
smoothSolver:  Solving for k, Initial residual = 0.00306428, Final residual = 0.000248028, No Iterations 5
ExecutionTime = 0.16321 s  ClockTime = 0 s

Time = 74s

smoothSolver:  Solving for Ux, Initial residual = 0.000646266, Final residual = 4.41262e-05, No Iterations 6
smoothSolver:  Solving for Uy, Initial residual = 0.155877, Final residual = 0.00945524, No Iterations 3
Pressure gradient source: uncorrected Ubar = 0.999999, pressure gradient = 0.00540194
GAMG:  Solving for p, Initial residual = 0.0532028, Final residual = 0.00531041, No Iterations 6
time step continuity errors : sum local = 1.07729e-06, global = 2.59008e-18, cumulative = 1.75432e-17
Pressure gradient source: uncorrected Ubar = 1, pressure gradient = 0.0053836
smoothSolver:  Solving for omega, Initial residual = 9.99568e-06, Final residual = 9.99568e-06, No Iterations 0
smoothSolver:  Solving for k, Initial residual = 0.0031369, Final residual = 0.000224574, No Iterations 5
ExecutionTime = 0.165231 s  ClockTime = 0 s

Time = 75s

smoothSolver:  Solving for Ux, Initial residual = 0.000597078, Final residual = 4.06759e-05, No Iterations 6
smoothSolver:  Solving for Uy, Initial residual = 0.283598, Final residual = 0.018743, No Iterations 3
Pressure gradient source: uncorrected Ubar = 0.999998, pressure gradient = 0.00541909
GAMG:  Solving for p, Initial residual = 0.0556715, Final residual = 0.00505172, No Iterations 5
time step continuity errors : sum local = 9.50654e-07, global = 2.94337e-18, cumulative = 2.04866e-17
Pressure gradient source: uncorrected Ubar = 1, pressure gradient = 0.00538099
smoothSolver:  Solving for omega, Initial residual = 1.01186e-05, Final residual = 5.48741e-06, No Iterations 1
smoothSolver:  Solving for k, Initial residual = 0.00288021, Final residual = 0.000206001, No Iterations 5
ExecutionTime = 0.1672 s  ClockTime = 0 s

Time = 76s

smoothSolver:  Solving for Ux, Initial residual = 0.000598648, Final residual = 4.13884e-05, No Iterations 6
smoothSolver:  Solving for Uy, Initial residual = 0.20881, Final residual = 0.0110415, No Iterations 3
Pressure gradient source: uncorrected Ubar = 0.999986, pressure gradient = 0.00560927
GAMG:  Solving for p, Initial residual = 0.0779596, Final residual = 0.00483725, No Iterations 3
time step continuity errors : sum local = 8.53474e-07, global = -1.36213e-18, cumulative = 1.91244e-17
Pressure gradient source: uncorrected Ubar = 0.999999, pressure gradient = 0.00540411
smoothSolver:  Solving for omega, Initial residual = 8.18853e-06, Final residual = 8.18853e-06, No Iterations 0
smoothSolver:  Solving for k, Initial residual = 0.00263262, Final residual = 0.00023173, No Iterations 5
ExecutionTime = 0.16912 s  ClockTime = 0 s

Time = 77s

smoothSolver:  Solving for Ux, Initial residual = 0.000548941, Final residual = 3.81854e-05, No Iterations 6
smoothSolver:  Solving for Uy, Initial residual = 0.284289, Final residual = 0.0153628, No Iterations 3
Pressure gradient source: uncorrected Ubar = 1, pressure gradient = 0.00538565
GAMG:  Solving for p, Initial residual = 0.0688085, Final residual = 0.00507185, No Iterations 3
time step continuity errors : sum local = 9.10456e-07, global = 8.18638e-18, cumulative = 2.73108e-17
Pressure gradient source: uncorrected Ubar = 1, pressure gradient = 0.005395
smoothSolver:  Solving for omega, Initial residual = 8.27376e-06, Final residual = 8.27376e-06, No Iterations 0
smoothSolver:  Solving for k, Initial residual = 0.00268964, Final residual = 0.000241049, No Iterations 5
ExecutionTime = 0.171034 s  ClockTime = 0 s

Time = 78s

smoothSolver:  Solving for Ux, Initial residual = 0.000500492, Final residual = 3.46349e-05, No Iterations 6
smoothSolver:  Solving for Uy, Initial residual = 0.230101, Final residual = 0.0133111, No Iterations 3
Pressure gradient source: uncorrected Ubar = 1, pressure gradient = 0.00537902
GAMG:  Solving for p, Initial residual = 0.0537455, Final residual = 0.00463999, No Iterations 3
time step continuity errors : sum local = 8.7864e-07, global = 4.70602e-18, cumulative = 3.20168e-17
Pressure gradient source: uncorrected Ubar = 1, pressure gradient = 0.00538655
smoothSolver:  Solving for omega, Initial residual = 8.35882e-06, Final residual = 8.35882e-06, No Iterations 0
smoothSolver:  Solving for k, Initial residual = 0.0027437, Final residual = 0.000241526, No Iterations 5
ExecutionTime = 0.173038 s  ClockTime = 0 s

Time = 79s

smoothSolver:  Solving for Ux, Initial residual = 0.000459594, Final residual = 3.15158e-05, No Iterations 6
smoothSolver:  Solving for Uy, Initial residual = 0.154121, Final residual = 0.0109228, No Iterations 3
Pressure gradient source: uncorrected Ubar = 1, pressure gradient = 0.00538562
GAMG:  Solving for p, Initial residual = 0.0457365, Final residual = 0.00440953, No Iterations 3
time step continuity errors : sum local = 8.66788e-07, global = 8.20863e-19, cumulative = 3.28377e-17
Pressure gradient source: uncorrected Ubar = 1, pressure gradient = 0.00538039
smoothSolver:  Solving for omega, Initial residual = 8.43788e-06, Final residual = 8.43788e-06, No Iterations 0
smoothSolver:  Solving for k, Initial residual = 0.00275257, Final residual = 0.000203725, No Iterations 5
ExecutionTime = 0.175198 s  ClockTime = 0 s

Time = 80s

smoothSolver:  Solving for Ux, Initial residual = 0.000420614, Final residual = 2.86849e-05, No Iterations 6
smoothSolver:  Solving for Uy, Initial residual = 0.155198, Final residual = 0.00994767, No Iterations 3
Pressure gradient source: uncorrected Ubar = 1, pressure gradient = 0.00537546
GAMG:  Solving for p, Initial residual = 0.0662769, Final residual = 0.00565092, No Iterations 3
time step continuity errors : sum local = 1.12131e-06, global = 6.41455e-19, cumulative = 3.34792e-17
Pressure gradient source: uncorrected Ubar = 1, pressure gradient = 0.00537418
smoothSolver:  Solving for omega, Initial residual = 8.51146e-06, Final residual = 8.51146e-06, No Iterations 0
smoothSolver:  Solving for k, Initial residual = 0.00278749, Final residual = 0.000208965, No Iterations 5
ExecutionTime = 0.177522 s  ClockTime = 0 s

Time = 81s

smoothSolver:  Solving for Ux, Initial residual = 0.000383476, Final residual = 2.57838e-05, No Iterations 6
smoothSolver:  Solving for Uy, Initial residual = 0.18002, Final residual = 0.0106536, No Iterations 3
Pressure gradient source: uncorrected Ubar = 1, pressure gradient = 0.00537333
GAMG:  Solving for p, Initial residual = 0.0562276, Final residual = 0.00334772, No Iterations 3
time step continuity errors : sum local = 6.72458e-07, global = 6.70271e-18, cumulative = 4.01819e-17
Pressure gradient source: uncorrected Ubar = 1, pressure gradient = 0.00536896
smoothSolver:  Solving for omega, Initial residual = 8.57583e-06, Final residual = 8.57583e-06, No Iterations 0
smoothSolver:  Solving for k, Initial residual = 0.00282778, Final residual = 0.000220651, No Iterations 5
ExecutionTime = 0.17949 s  ClockTime = 0 s

Time = 82s

smoothSolver:  Solving for Ux, Initial residual = 0.000348739, Final residual = 2.32074e-05, No Iterations 6
smoothSolver:  Solving for Uy, Initial residual = 0.147779, Final residual = 0.00828753, No Iterations 3
Pressure gradient source: uncorrected Ubar = 0.999999, pressure gradient = 0.00537949
GAMG:  Solving for p, Initial residual = 0.0500541, Final residual = 0.00298835, No Iterations 3
time step continuity errors : sum local = 6.188e-07, global = -7.22354e-18, cumulative = 3.29583e-17
Pressure gradient source: uncorrected Ubar = 1, pressure gradient = 0.00536561
smoothSolver:  Solving for omega, Initial residual = 8.6311e-06, Final residual = 8.6311e-06, No Iterations 0
smoothSolver:  Solving for k, Initial residual = 0.00282337, Final residual = 0.000208033, No Iterations 5
ExecutionTime = 0.181418 s  ClockTime = 0 s

Time = 83s

smoothSolver:  Solving for Ux, Initial residual = 0.000314803, Final residual = 3.10247e-05, No Iterations 5
smoothSolver:  Solving for Uy, Initial residual = 0.147907, Final residual = 0.00953823, No Iterations 3
Pressure gradient source: uncorrected Ubar = 1, pressure gradient = 0.00535822
GAMG:  Solving for p, Initial residual = 0.0498456, Final residual = 0.0033885, No Iterations 3
time step continuity errors : sum local = 7.34825e-07, global = 1.02124e-18, cumulative = 3.39796e-17
Pressure gradient source: uncorrected Ubar = 1, pressure gradient = 0.0053586
smoothSolver:  Solving for omega, Initial residual = 8.67951e-06, Final residual = 8.67951e-06, No Iterations 0
smoothSolver:  Solving for k, Initial residual = 0.00280547, Final residual = 0.000195311, No Iterations 5
ExecutionTime = 0.18331 s  ClockTime = 0 s

Time = 84s

smoothSolver:  Solving for Ux, Initial residual = 0.00028115, Final residual = 2.72002e-05, No Iterations 5
smoothSolver:  Solving for Uy, Initial residual = 0.158332, Final residual = 0.00975658, No Iterations 3
Pressure gradient source: uncorrected Ubar = 1, pressure gradient = 0.00532445
GAMG:  Solving for p, Initial residual = 0.0413208, Final residual = 0.00383201, No Iterations 6
time step continuity errors : sum local = 9.13691e-07, global = -1.05371e-17, cumulative = 2.34424e-17
Pressure gradient source: uncorrected Ubar = 1, pressure gradient = 0.00534836
smoothSolver:  Solving for omega, Initial residual = 8.71523e-06, Final residual = 8.71523e-06, No Iterations 0
smoothSolver:  Solving for k, Initial residual = 0.0028584, Final residual = 0.000244799, No Iterations 5
ExecutionTime = 0.185286 s  ClockTime = 0 s

Time = 85s

smoothSolver:  Solving for Ux, Initial residual = 0.000252964, Final residual = 2.41262e-05, No Iterations 5
smoothSolver:  Solving for Uy, Initial residual = 0.134898, Final residual = 0.00622707, No Iterations 3
Pressure gradient source: uncorrected Ubar = 1, pressure gradient = 0.00533225
GAMG:  Solving for p, Initial residual = 0.0360133, Final residual = 0.00248164, No Iterations 5
time step continuity errors : sum local = 5.14887e-07, global = 3.41026e-18, cumulative = 2.68527e-17
Pressure gradient source: uncorrected Ubar = 1, pressure gradient = 0.00534124
smoothSolver:  Solving for omega, Initial residual = 8.76882e-06, Final residual = 8.76882e-06, No Iterations 0
smoothSolver:  Solving for k, Initial residual = 0.00285333, Final residual = 0.000241053, No Iterations 5
ExecutionTime = 0.187258 s  ClockTime = 0 s

Time = 86s

smoothSolver:  Solving for Ux, Initial residual = 0.000229347, Final residual = 2.16438e-05, No Iterations 5
smoothSolver:  Solving for Uy, Initial residual = 0.169938, Final residual = 0.00959731, No Iterations 3
Pressure gradient source: uncorrected Ubar = 1, pressure gradient = 0.00530693
GAMG:  Solving for p, Initial residual = 0.0459572, Final residual = 0.00295024, No Iterations 3
time step continuity errors : sum local = 6.17717e-07, global = -3.51466e-19, cumulative = 2.65012e-17
Pressure gradient source: uncorrected Ubar = 1, pressure gradient = 0.00533197
smoothSolver:  Solving for omega, Initial residual = 8.80583e-06, Final residual = 8.80583e-06, No Iterations 0
smoothSolver:  Solving for k, Initial residual = 0.00283564, Final residual = 0.000220264, No Iterations 5
ExecutionTime = 0.189255 s  ClockTime = 0 s

Time = 87s

smoothSolver:  Solving for Ux, Initial residual = 0.000206365, Final residual = 1.93892e-05, No Iterations 5
smoothSolver:  Solving for Uy, Initial residual = 0.20734, Final residual = 0.0123593, No Iterations 3
Pressure gradient source: uncorrected Ubar = 1, pressure gradient = 0.00529603
GAMG:  Solving for p, Initial residual = 0.0395994, Final residual = 0.00351591, No Iterations 5
time step continuity errors : sum local = 7.2529e-07, global = -6.18678e-18, cumulative = 2.03145e-17
Pressure gradient source: uncorrected Ubar = 1, pressure gradient = 0.00532281
smoothSolver:  Solving for omega, Initial residual = 8.84098e-06, Final residual = 8.84098e-06, No Iterations 0
smoothSolver:  Solving for k, Initial residual = 0.0027744, Final residual = 0.000161367, No Iterations 5
ExecutionTime = 0.191262 s  ClockTime = 0 s

Time = 88s

smoothSolver:  Solving for Ux, Initial residual = 0.000183832, Final residual = 1.72986e-05, No Iterations 5
smoothSolver:  Solving for Uy, Initial residual = 0.181551, Final residual = 0.0115588, No Iterations 3
Pressure gradient source: uncorrected Ubar = 1, pressure gradient = 0.00526807
GAMG:  Solving for p, Initial residual = 0.0441222, Final residual = 0.00347001, No Iterations 5
time step continuity errors : sum local = 7.04127e-07, global = 5.06949e-18, cumulative = 2.5384e-17
Pressure gradient source: uncorrected Ubar = 1, pressure gradient = 0.00531144
smoothSolver:  Solving for omega, Initial residual = 8.86971e-06, Final residual = 8.86971e-06, No Iterations 0
smoothSolver:  Solving for k, Initial residual = 0.00279635, Final residual = 0.000196141, No Iterations 5
ExecutionTime = 0.19386 s  ClockTime = 0 s

Time = 89s

smoothSolver:  Solving for Ux, Initial residual = 0.000172216, Final residual = 1.63758e-05, No Iterations 5
smoothSolver:  Solving for Uy, Initial residual = 0.169086, Final residual = 0.0079405, No Iterations 3
Pressure gradient source: uncorrected Ubar = 1, pressure gradient = 0.00526238
GAMG:  Solving for p, Initial residual = 0.0531633, Final residual = 0.00446391, No Iterations 3
time step continuity errors : sum local = 8.6129e-07, global = -1.08069e-17, cumulative = 1.4577e-17
Pressure gradient source: uncorrected Ubar = 1, pressure gradient = 0.00530113
[...]
Pressure gradient source: uncorrected Ubar = 1, pressure gradient = 0.00510589
smoothSolver:  Solving for omega, Initial residual = 7.39084e-06, Final residual = 7.39084e-06, No Iterations 0
smoothSolver:  Solving for k, Initial residual = 0.000108004, Final residual = 8.41367e-06, No Iterations 5
ExecutionTime = 0.455313 s  ClockTime = 0 s

Time = 219s

smoothSolver:  Solving for Ux, Initial residual = 3.04999e-05, Final residual = 7.94659e-06, No Iterations 3
smoothSolver:  Solving for Uy, Initial residual = 0.017662, Final residual = 0.00155313, No Iterations 2
Pressure gradient source: uncorrected Ubar = 1, pressure gradient = 0.00510511
GAMG:  Solving for p, Initial residual = 0.00421887, Final residual = 0.000201635, No Iterations 3
time step continuity errors : sum local = 3.86788e-08, global = -2.48146e-18, cumulative = 3.56715e-17
Pressure gradient source: uncorrected Ubar = 1, pressure gradient = 0.00510551
smoothSolver:  Solving for omega, Initial residual = 7.38948e-06, Final residual = 7.38948e-06, No Iterations 0
smoothSolver:  Solving for k, Initial residual = 0.000109085, Final residual = 7.64779e-06, No Iterations 5
ExecutionTime = 0.457318 s  ClockTime = 0 s

Time = 220s

smoothSolver:  Solving for Ux, Initial residual = 2.83958e-05, Final residual = 7.38216e-06, No Iterations 3
smoothSolver:  Solving for Uy, Initial residual = 0.0162651, Final residual = 0.00146284, No Iterations 2
Pressure gradient source: uncorrected Ubar = 1, pressure gradient = 0.00510495
GAMG:  Solving for p, Initial residual = 0.00389883, Final residual = 0.000376368, No Iterations 3
time step continuity errors : sum local = 7.18674e-08, global = -2.34885e-18, cumulative = 3.33226e-17
Pressure gradient source: uncorrected Ubar = 1, pressure gradient = 0.00510517
smoothSolver:  Solving for omega, Initial residual = 7.38836e-06, Final residual = 7.38836e-06, No Iterations 0
smoothSolver:  Solving for k, Initial residual = 0.00011395, Final residual = 9.45663e-06, No Iterations 5
ExecutionTime = 0.459338 s  ClockTime = 0 s

Time = 221s

smoothSolver:  Solving for Ux, Initial residual = 2.61923e-05, Final residual = 6.81527e-06, No Iterations 3
smoothSolver:  Solving for Uy, Initial residual = 0.0194745, Final residual = 0.000859502, No Iterations 3
Pressure gradient source: uncorrected Ubar = 1, pressure gradient = 0.00510387
GAMG:  Solving for p, Initial residual = 0.00427112, Final residual = 0.000232689, No Iterations 6
time step continuity errors : sum local = 4.64889e-08, global = 1.43579e-18, cumulative = 3.47584e-17
Pressure gradient source: uncorrected Ubar = 1, pressure gradient = 0.00510473
smoothSolver:  Solving for omega, Initial residual = 7.38744e-06, Final residual = 7.38744e-06, No Iterations 0
smoothSolver:  Solving for k, Initial residual = 0.0001116, Final residual = 7.93772e-06, No Iterations 5
ExecutionTime = 0.461469 s  ClockTime = 0 s

Time = 222s

smoothSolver:  Solving for Ux, Initial residual = 2.41378e-05, Final residual = 9.5055e-06, No Iterations 2
smoothSolver:  Solving for Uy, Initial residual = 0.0213348, Final residual = 0.00202679, No Iterations 2
Pressure gradient source: uncorrected Ubar = 1, pressure gradient = 0.00510591
GAMG:  Solving for p, Initial residual = 0.00407356, Final residual = 0.000342291, No Iterations 5
time step continuity errors : sum local = 6.9463e-08, global = 2.21897e-17, cumulative = 5.69481e-17
Pressure gradient source: uncorrected Ubar = 1, pressure gradient = 0.00510489
smoothSolver:  Solving for omega, Initial residual = 7.38696e-06, Final residual = 7.38696e-06, No Iterations 0
smoothSolver:  Solving for k, Initial residual = 0.000116916, Final residual = 9.27891e-06, No Iterations 5
ExecutionTime = 0.463535 s  ClockTime = 0 s

Time = 223s

smoothSolver:  Solving for Ux, Initial residual = 2.20512e-05, Final residual = 8.69331e-06, No Iterations 2
smoothSolver:  Solving for Uy, Initial residual = 0.0154266, Final residual = 0.00127959, No Iterations 2
Pressure gradient source: uncorrected Ubar = 1, pressure gradient = 0.00510309
GAMG:  Solving for p, Initial residual = 0.00421314, Final residual = 0.000264201, No Iterations 3
time step continuity errors : sum local = 5.04113e-08, global = -1.20775e-17, cumulative = 4.48706e-17
Pressure gradient source: uncorrected Ubar = 1, pressure gradient = 0.00510443
smoothSolver:  Solving for omega, Initial residual = 7.38657e-06, Final residual = 7.38657e-06, No Iterations 0
smoothSolver:  Solving for k, Initial residual = 0.000116469, Final residual = 8.24945e-06, No Iterations 5
ExecutionTime = 0.465473 s  ClockTime = 0 s

Time = 224s

smoothSolver:  Solving for Ux, Initial residual = 1.99832e-05, Final residual = 7.88801e-06, No Iterations 2
smoothSolver:  Solving for Uy, Initial residual = 0.0173381, Final residual = 0.0015683, No Iterations 2
Pressure gradient source: uncorrected Ubar = 1, pressure gradient = 0.00510268
GAMG:  Solving for p, Initial residual = 0.00361872, Final residual = 0.000353384, No Iterations 4
time step continuity errors : sum local = 6.78626e-08, global = 6.71662e-19, cumulative = 4.55423e-17
Pressure gradient source: uncorrected Ubar = 1, pressure gradient = 0.00510396
smoothSolver:  Solving for omega, Initial residual = 7.38644e-06, Final residual = 7.38644e-06, No Iterations 0
smoothSolver:  Solving for k, Initial residual = 0.000120441, Final residual = 9.68825e-06, No Iterations 5
ExecutionTime = 0.467545 s  ClockTime = 0 s

Time = 225s

smoothSolver:  Solving for Ux, Initial residual = 1.80137e-05, Final residual = 7.11009e-06, No Iterations 2
smoothSolver:  Solving for Uy, Initial residual = 0.0151276, Final residual = 0.00119478, No Iterations 2
Pressure gradient source: uncorrected Ubar = 1, pressure gradient = 0.00510165
GAMG:  Solving for p, Initial residual = 0.00361243, Final residual = 0.000226385, No Iterations 5
time step continuity errors : sum local = 4.36954e-08, global = -3.39502e-18, cumulative = 4.21473e-17
Pressure gradient source: uncorrected Ubar = 1, pressure gradient = 0.00510338
smoothSolver:  Solving for omega, Initial residual = 7.38638e-06, Final residual = 7.38638e-06, No Iterations 0
smoothSolver:  Solving for k, Initial residual = 0.000116757, Final residual = 8.49105e-06, No Iterations 5
ExecutionTime = 0.469544 s  ClockTime = 0 s

Time = 226s

smoothSolver:  Solving for Ux, Initial residual = 1.61081e-05, Final residual = 9.81545e-06, No Iterations 1
smoothSolver:  Solving for Uy, Initial residual = 0.0165851, Final residual = 0.00140544, No Iterations 2
Pressure gradient source: uncorrected Ubar = 1, pressure gradient = 0.00510375
GAMG:  Solving for p, Initial residual = 0.00406352, Final residual = 0.000331205, No Iterations 4
time step continuity errors : sum local = 6.54472e-08, global = -1.71705e-17, cumulative = 2.49768e-17
Pressure gradient source: uncorrected Ubar = 1, pressure gradient = 0.00510379
smoothSolver:  Solving for omega, Initial residual = 7.38666e-06, Final residual = 7.38666e-06, No Iterations 0
smoothSolver:  Solving for k, Initial residual = 0.000121993, Final residual = 9.36903e-06, No Iterations 5
ExecutionTime = 0.471492 s  ClockTime = 0 s

Time = 227s

smoothSolver:  Solving for Ux, Initial residual = 1.44078e-05, Final residual = 8.80376e-06, No Iterations 1
smoothSolver:  Solving for Uy, Initial residual = 0.0171022, Final residual = 0.00142532, No Iterations 2
Pressure gradient source: uncorrected Ubar = 1, pressure gradient = 0.00510126
GAMG:  Solving for p, Initial residual = 0.00382584, Final residual = 0.000365001, No Iterations 3
time step continuity errors : sum local = 7.35295e-08, global = -3.65812e-18, cumulative = 2.13186e-17
Pressure gradient source: uncorrected Ubar = 1, pressure gradient = 0.0051032
smoothSolver:  Solving for omega, Initial residual = 7.38705e-06, Final residual = 7.38705e-06, No Iterations 0
smoothSolver:  Solving for k, Initial residual = 0.000120127, Final residual = 8.18306e-06, No Iterations 5
ExecutionTime = 0.473486 s  ClockTime = 0 s

Time = 228s

smoothSolver:  Solving for Ux, Initial residual = 1.26686e-05, Final residual = 7.73373e-06, No Iterations 1
smoothSolver:  Solving for Uy, Initial residual = 0.0179314, Final residual = 0.00154003, No Iterations 2
Pressure gradient source: uncorrected Ubar = 1, pressure gradient = 0.00510084
GAMG:  Solving for p, Initial residual = 0.00355456, Final residual = 0.000346107, No Iterations 4
time step continuity errors : sum local = 6.99412e-08, global = -3.28157e-18, cumulative = 1.80371e-17
Pressure gradient source: uncorrected Ubar = 1, pressure gradient = 0.00510262
smoothSolver:  Solving for omega, Initial residual = 7.38755e-06, Final residual = 7.38755e-06, No Iterations 0
smoothSolver:  Solving for k, Initial residual = 0.00012265, Final residual = 1.0385e-05, No Iterations 5
ExecutionTime = 0.475653 s  ClockTime = 0 s

Time = 229s

smoothSolver:  Solving for Ux, Initial residual = 1.0957e-05, Final residual = 6.68613e-06, No Iterations 1
smoothSolver:  Solving for Uy, Initial residual = 0.0168381, Final residual = 0.00158664, No Iterations 2
Pressure gradient source: uncorrected Ubar = 1, pressure gradient = 0.00510003
GAMG:  Solving for p, Initial residual = 0.00318476, Final residual = 0.000290665, No Iterations 4
time step continuity errors : sum local = 5.27991e-08, global = -6.40363e-18, cumulative = 1.16334e-17
Pressure gradient source: uncorrected Ubar = 1, pressure gradient = 0.00510188
smoothSolver:  Solving for omega, Initial residual = 7.38774e-06, Final residual = 7.38774e-06, No Iterations 0
smoothSolver:  Solving for k, Initial residual = 0.00011748, Final residual = 8.26475e-06, No Iterations 5
ExecutionTime = 0.477721 s  ClockTime = 0 s

Time = 230s

smoothSolver:  Solving for Ux, Initial residual = 9.41502e-06, Final residual = 9.41502e-06, No Iterations 0
smoothSolver:  Solving for Uy, Initial residual = 0.0175062, Final residual = 0.00167856, No Iterations 2
Pressure gradient source: uncorrected Ubar = 1, pressure gradient = 0.00510188
GAMG:  Solving for p, Initial residual = 0.00358007, Final residual = 0.000317186, No Iterations 4
time step continuity errors : sum local = 5.95639e-08, global = 8.94054e-20, cumulative = 1.17229e-17
Pressure gradient source: uncorrected Ubar = 1, pressure gradient = 0.00510279
smoothSolver:  Solving for omega, Initial residual = 7.38813e-06, Final residual = 7.38813e-06, No Iterations 0
smoothSolver:  Solving for k, Initial residual = 0.000122071, Final residual = 1.03844e-05, No Iterations 5
ExecutionTime = 0.479735 s  ClockTime = 0 s

Time = 231s

smoothSolver:  Solving for Ux, Initial residual = 8.22463e-06, Final residual = 8.22463e-06, No Iterations 0
smoothSolver:  Solving for Uy, Initial residual = 0.0269544, Final residual = 0.00112946, No Iterations 3
Pressure gradient source: uncorrected Ubar = 1, pressure gradient = 0.00510279
GAMG:  Solving for p, Initial residual = 0.00402731, Final residual = 0.000372759, No Iterations 3
time step continuity errors : sum local = 6.89485e-08, global = -4.29234e-18, cumulative = 7.43051e-18
Pressure gradient source: uncorrected Ubar = 1, pressure gradient = 0.00510186
smoothSolver:  Solving for omega, Initial residual = 7.38843e-06, Final residual = 7.38843e-06, No Iterations 0
smoothSolver:  Solving for k, Initial residual = 0.000118332, Final residual = 8.53461e-06, No Iterations 5
ExecutionTime = 0.481695 s  ClockTime = 0 s

Time = 232s

smoothSolver:  Solving for Ux, Initial residual = 6.75028e-06, Final residual = 6.75028e-06, No Iterations 0
smoothSolver:  Solving for Uy, Initial residual = 0.0299396, Final residual = 0.00129328, No Iterations 3
Pressure gradient source: uncorrected Ubar = 1, pressure gradient = 0.00510186
GAMG:  Solving for p, Initial residual = 0.00363362, Final residual = 0.000238748, No Iterations 4
time step continuity errors : sum local = 4.60673e-08, global = 1.17255e-17, cumulative = 1.9156e-17
Pressure gradient source: uncorrected Ubar = 1, pressure gradient = 0.00510099
smoothSolver:  Solving for omega, Initial residual = 7.38892e-06, Final residual = 7.38892e-06, No Iterations 0
smoothSolver:  Solving for k, Initial residual = 0.000120856, Final residual = 1.01e-05, No Iterations 5
ExecutionTime = 0.483681 s  ClockTime = 0 s

Time = 233s

smoothSolver:  Solving for Ux, Initial residual = 5.72083e-06, Final residual = 5.72083e-06, No Iterations 0
smoothSolver:  Solving for Uy, Initial residual = 0.0320838, Final residual = 0.00142649, No Iterations 3
Pressure gradient source: uncorrected Ubar = 1, pressure gradient = 0.00510099
GAMG:  Solving for p, Initial residual = 0.00321644, Final residual = 0.000286006, No Iterations 4
time step continuity errors : sum local = 5.624e-08, global = -3.50905e-18, cumulative = 1.56469e-17
Pressure gradient source: uncorrected Ubar = 1, pressure gradient = 0.0051
smoothSolver:  Solving for omega, Initial residual = 7.38929e-06, Final residual = 7.38929e-06, No Iterations 0
smoothSolver:  Solving for k, Initial residual = 0.000115276, Final residual = 8.19625e-06, No Iterations 5
ExecutionTime = 0.485575 s  ClockTime = 0 s

Time = 234s

smoothSolver:  Solving for Ux, Initial residual = 5.14002e-06, Final residual = 5.14002e-06, No Iterations 0
smoothSolver:  Solving for Uy, Initial residual = 0.0295559, Final residual = 0.00116162, No Iterations 3
Pressure gradient source: uncorrected Ubar = 1, pressure gradient = 0.0051
GAMG:  Solving for p, Initial residual = 0.0033098, Final residual = 0.000178917, No Iterations 6
time step continuity errors : sum local = 3.55032e-08, global = -7.08223e-18, cumulative = 8.56469e-18
Pressure gradient source: uncorrected Ubar = 1, pressure gradient = 0.00509915
smoothSolver:  Solving for omega, Initial residual = 7.38984e-06, Final residual = 7.38984e-06, No Iterations 0
smoothSolver:  Solving for k, Initial residual = 0.000120231, Final residual = 9.75659e-06, No Iterations 5
ExecutionTime = 0.487559 s  ClockTime = 0 s

Time = 235s

smoothSolver:  Solving for Ux, Initial residual = 4.74217e-06, Final residual = 4.74217e-06, No Iterations 0
smoothSolver:  Solving for Uy, Initial residual = 0.0276689, Final residual = 0.00111031, No Iterations 3
Pressure gradient source: uncorrected Ubar = 1, pressure gradient = 0.00509915
GAMG:  Solving for p, Initial residual = 0.00290443, Final residual = 0.000253928, No Iterations 6
time step continuity errors : sum local = 5.07927e-08, global = 6.80381e-19, cumulative = 9.24507e-18
Pressure gradient source: uncorrected Ubar = 1, pressure gradient = 0.00509817
smoothSolver:  Solving for omega, Initial residual = 7.39041e-06, Final residual = 7.39041e-06, No Iterations 0
smoothSolver:  Solving for k, Initial residual = 0.000115482, Final residual = 8.09283e-06, No Iterations 5
ExecutionTime = 0.489587 s  ClockTime = 0 s

Time = 236s

smoothSolver:  Solving for Ux, Initial residual = 4.53289e-06, Final residual = 4.53289e-06, No Iterations 0
smoothSolver:  Solving for Uy, Initial residual = 0.0281162, Final residual = 0.00247753, No Iterations 2
Pressure gradient source: uncorrected Ubar = 1, pressure gradient = 0.00509817
GAMG:  Solving for p, Initial residual = 0.00256865, Final residual = 0.000233126, No Iterations 6
time step continuity errors : sum local = 4.7543e-08, global = 1.20385e-17, cumulative = 2.12836e-17
Pressure gradient source: uncorrected Ubar = 1, pressure gradient = 0.00509733
smoothSolver:  Solving for omega, Initial residual = 7.39115e-06, Final residual = 7.39115e-06, No Iterations 0
smoothSolver:  Solving for k, Initial residual = 0.000117863, Final residual = 9.09018e-06, No Iterations 5
ExecutionTime = 0.491721 s  ClockTime = 0 s

Time = 237s

smoothSolver:  Solving for Ux, Initial residual = 4.73274e-06, Final residual = 4.73274e-06, No Iterations 0
smoothSolver:  Solving for Uy, Initial residual = 0.0200062, Final residual = 0.00195715, No Iterations 2
Pressure gradient source: uncorrected Ubar = 1, pressure gradient = 0.00509733
GAMG:  Solving for p, Initial residual = 0.00206598, Final residual = 0.000196831, No Iterations 6
time step continuity errors : sum local = 3.82189e-08, global = -2.26442e-18, cumulative = 1.90192e-17
Pressure gradient source: uncorrected Ubar = 1, pressure gradient = 0.00509642
smoothSolver:  Solving for omega, Initial residual = 7.39164e-06, Final residual = 7.39164e-06, No Iterations 0
smoothSolver:  Solving for k, Initial residual = 0.000114089, Final residual = 7.88232e-06, No Iterations 5
ExecutionTime = 0.493874 s  ClockTime = 0 s

Time = 238s

smoothSolver:  Solving for Ux, Initial residual = 5.2321e-06, Final residual = 5.2321e-06, No Iterations 0
smoothSolver:  Solving for Uy, Initial residual = 0.0153114, Final residual = 0.00148799, No Iterations 2
Pressure gradient source: uncorrected Ubar = 1, pressure gradient = 0.00509642
GAMG:  Solving for p, Initial residual = 0.00225808, Final residual = 0.000198652, No Iterations 6
time step continuity errors : sum local = 3.81049e-08, global = 3.7539e-18, cumulative = 2.27731e-17
Pressure gradient source: uncorrected Ubar = 1, pressure gradient = 0.00509558
smoothSolver:  Solving for omega, Initial residual = 7.39248e-06, Final residual = 7.39248e-06, No Iterations 0
smoothSolver:  Solving for k, Initial residual = 0.000118094, Final residual = 1.08312e-05, No Iterations 5
ExecutionTime = 0.495952 s  ClockTime = 0 s

Time = 239s

smoothSolver:  Solving for Ux, Initial residual = 6.06687e-06, Final residual = 6.06687e-06, No Iterations 0
smoothSolver:  Solving for Uy, Initial residual = 0.0108191, Final residual = 0.00107148, No Iterations 2
Pressure gradient source: uncorrected Ubar = 1, pressure gradient = 0.00509558
GAMG:  Solving for p, Initial residual = 0.00189869, Final residual = 0.000127692, No Iterations 6
time step continuity errors : sum local = 2.34874e-08, global = 8.56721e-18, cumulative = 3.13403e-17
Pressure gradient source: uncorrected Ubar = 1, pressure gradient = 0.00509457
smoothSolver:  Solving for omega, Initial residual = 7.39312e-06, Final residual = 7.39312e-06, No Iterations 0
smoothSolver:  Solving for k, Initial residual = 0.000111357, Final residual = 8.1788e-06, No Iterations 5
ExecutionTime = 0.497982 s  ClockTime = 0 s

Time = 240s

smoothSolver:  Solving for Ux, Initial residual = 7.09706e-06, Final residual = 7.09706e-06, No Iterations 0
smoothSolver:  Solving for Uy, Initial residual = 0.0130107, Final residual = 0.00048217, No Iterations 3
Pressure gradient source: uncorrected Ubar = 1, pressure gradient = 0.00509457
GAMG:  Solving for p, Initial residual = 0.00184529, Final residual = 0.000135997, No Iterations 5
time step continuity errors : sum local = 2.46296e-08, global = 1.13195e-18, cumulative = 3.24722e-17
Pressure gradient source: uncorrected Ubar = 1, pressure gradient = 0.00509376
smoothSolver:  Solving for omega, Initial residual = 7.39402e-06, Final residual = 7.39402e-06, No Iterations 0
smoothSolver:  Solving for k, Initial residual = 0.000113676, Final residual = 8.26907e-06, No Iterations 5
ExecutionTime = 0.500158 s  ClockTime = 0 s

Time = 241s

smoothSolver:  Solving for Ux, Initial residual = 8.31996e-06, Final residual = 8.31996e-06, No Iterations 0
smoothSolver:  Solving for Uy, Initial residual = 0.00971715, Final residual = 0.000887279, No Iterations 2
Pressure gradient source: uncorrected Ubar = 1, pressure gradient = 0.00509376
GAMG:  Solving for p, Initial residual = 0.00170564, Final residual = 0.000109681, No Iterations 5
time step continuity errors : sum local = 2.16438e-08, global = -6.59874e-18, cumulative = 2.58735e-17
Pressure gradient source: uncorrected Ubar = 1, pressure gradient = 0.00509293
smoothSolver:  Solving for omega, Initial residual = 7.39504e-06, Final residual = 7.39504e-06, No Iterations 0
smoothSolver:  Solving for k, Initial residual = 0.000112084, Final residual = 7.90248e-06, No Iterations 5
ExecutionTime = 0.502383 s  ClockTime = 0 s


SIMPLE solution converged in 241 iterations

End

