/*---------------------------------------------------------------------------*\
  =========                 |
  \\      /  F ield         | OpenFOAM: The Open Source CFD Toolbox
   \\    /   O peration     | Website:  https://openfoam.org
    \\  /    A nd           | Version:  10
     \\/     M anipulation  |
\*---------------------------------------------------------------------------*/
Build  : 10-e450dce21ea5
Exec   : blockMesh
Date   : Feb 20 2023
Time   : 14:06:51
Host   : "w530-R9YK46P"
PID    : 18273
I/O    : uncollated
Case   : /home/jdmezazeron/gitDanielMezaZ/turbulenceVisualized/Data/SimulationFiles/K5_Re176
nProcs : 1
sigFpe : Enabling floating point exception trapping (FOAM_SIGFPE).
fileModificationChecking : Monitoring run-time modified files using timeStampMaster (fileModificationSkew 10)
allowSystemOperations : Allowing user-supplied system call operations

// * * * * * * * * * * * * * * * * * * * * * * * * * * * * * * * * * * * * * //
Create time

Deleting polyMesh directory
    "/home/jdmezazeron/gitDanielMezaZ/turbulenceVisualized/Data/SimulationFiles/K5_Re176/constant/polyMesh"
Reading "blockMeshDict"

Creating block mesh from
    "system/blockMeshDict"
Creating block edges
No non-planar block faces defined
Creating topology blocks
Creating topology patches

Creating block mesh topology

Check topology

	Basic statistics
		Number of internal faces : 0
		Number of boundary faces : 6
		Number of defined boundary faces : 6
		Number of undefined boundary faces : 0
	Checking patch -> block consistency

Creating block offsets
Creating merge list .

Creating polyMesh from blockMesh
Creating patches
Creating cells
Creating points with scale 1
    Block 0 cell size :
        i : 0.5
        j : 0.00461374 .. 0.018455
        k : 2

Detected cyclic patches; ordering boundary faces

Writing polyMesh
----------------
Mesh Information
----------------
  boundingBox: (-1 0 -1) (1 1 1)
  nPoints: 1010
  nCells: 400
  nFaces: 1704
  nInternalFaces: 696
----------------
Patches
----------------
  patch 0 (start: 696 size: 100) name: inlet
  patch 1 (start: 796 size: 100) name: outlet
  patch 2 (start: 896 size: 4) name: fixedWalls-bottom
  patch 3 (start: 900 size: 4) name: fixedWalls-top
  patch 4 (start: 904 size: 800) name: frontAndBack

End

/*---------------------------------------------------------------------------*\
  =========                 |
  \\      /  F ield         | OpenFOAM: The Open Source CFD Toolbox
   \\    /   O peration     | Website:  https://openfoam.org
    \\  /    A nd           | Version:  10
     \\/     M anipulation  |
\*---------------------------------------------------------------------------*/
Build  : 10-e450dce21ea5
Exec   : simpleFoam
Date   : Feb 20 2023
Time   : 14:06:51
Host   : "w530-R9YK46P"
PID    : 18274
I/O    : uncollated
Case   : /home/jdmezazeron/gitDanielMezaZ/turbulenceVisualized/Data/SimulationFiles/K5_Re176
nProcs : 1
sigFpe : Enabling floating point exception trapping (FOAM_SIGFPE).
fileModificationChecking : Monitoring run-time modified files using timeStampMaster (fileModificationSkew 10)
allowSystemOperations : Allowing user-supplied system call operations

// * * * * * * * * * * * * * * * * * * * * * * * * * * * * * * * * * * * * * //
Create time

Create mesh for time = 0


SIMPLE: Convergence criteria found
        U: tolerance 0.0001
        p: tolerance 0.01
        omega: tolerance 0.0001

Reading field p

Reading field U

Reading/calculating face flux field phi

Selecting viscosity model Newtonian
Selecting turbulence model type RAS
Selecting RAS turbulence model kOmegaSST
Selecting patchDistMethod meshWave
RAS
{
    RASModel        kOmegaSST;
    turbulence      on;
    printCoeffs     on;
    alphaK1         0.85;
    alphaK2         1;
    alphaOmega1     0.5;
    alphaOmega2     0.856;
    gamma1          0.555556;
    gamma2          0.44;
    beta1           0.075;
    beta2           0.0828;
    betaStar        0.09;
    a1              0.31;
    b1              1;
    c1              10;
    F3              false;
}

No MRF models present

--> FOAM Warning : Creating fvModels from "system/fvOptions" rather than constant/fvModels
No fvModels present
--> FOAM Warning : Creating fvConstraints from "system/fvOptions"

Selecting finite volume constraint type meanVelocityForce
    Name: momentumSource
    - selecting all cells
    - selected 400 cell(s) with volume 4
    Initial pressure gradient = 0


Starting time loop

turbulenceFields stressComponents: storing fields:
    R

Time = 1s

smoothSolver:  Solving for Ux, Initial residual = 0, Final residual = 0, No Iterations 0
smoothSolver:  Solving for Uy, Initial residual = 0, Final residual = 0, No Iterations 0
Pressure gradient source: uncorrected Ubar = 0, pressure gradient = 1863.47
GAMG:  Solving for p, Initial residual = 0.999996, Final residual = 0.0907867, No Iterations 3
time step continuity errors : sum local = 1.12955e-16, global = 6.09002e-19, cumulative = 6.09002e-19
Pressure gradient source: uncorrected Ubar = 0.884647, pressure gradient = 214.957
smoothSolver:  Solving for omega, Initial residual = 0.0803391, Final residual = 0.00485433, No Iterations 3
smoothSolver:  Solving for k, Initial residual = 1, Final residual = 0.0523436, No Iterations 2
ExecutionTime = 0.014634 s  ClockTime = 0 s

Time = 2s

smoothSolver:  Solving for Ux, Initial residual = 0.927491, Final residual = 0.0788272, No Iterations 6
smoothSolver:  Solving for Uy, Initial residual = 1, Final residual = 0.0792491, No Iterations 6
Pressure gradient source: uncorrected Ubar = 10.4622, pressure gradient = -1612.74
GAMG:  Solving for p, Initial residual = 1, Final residual = 0.0993447, No Iterations 15
time step continuity errors : sum local = 0.00375716, global = 1.0117e-17, cumulative = 1.0726e-17
Pressure gradient source: uncorrected Ubar = 2.19065, pressure gradient = -15.0257
smoothSolver:  Solving for omega, Initial residual = 0.198125, Final residual = 0.000781856, No Iterations 1
smoothSolver:  Solving for k, Initial residual = 0.557782, Final residual = 0.017252, No Iterations 1
ExecutionTime = 0.017835 s  ClockTime = 0 s

Time = 3s

smoothSolver:  Solving for Ux, Initial residual = 0.321643, Final residual = 0.0304624, No Iterations 5
smoothSolver:  Solving for Uy, Initial residual = 0.309, Final residual = 0.0257584, No Iterations 5
Pressure gradient source: uncorrected Ubar = 0.400185, pressure gradient = 103.39
GAMG:  Solving for p, Initial residual = 0.220263, Final residual = 0.0217349, No Iterations 10
time step continuity errors : sum local = 0.0016126, global = -9.5791e-18, cumulative = 1.14687e-18
Pressure gradient source: uncorrected Ubar = 0.918794, pressure gradient = 1.00594
smoothSolver:  Solving for omega, Initial residual = 0.0092897, Final residual = 0.000181676, No Iterations 1
smoothSolver:  Solving for k, Initial residual = 0.0514981, Final residual = 0.00335796, No Iterations 2
ExecutionTime = 0.020702 s  ClockTime = 0 s

Time = 4s

smoothSolver:  Solving for Ux, Initial residual = 0.0447586, Final residual = 0.00371277, No Iterations 4
smoothSolver:  Solving for Uy, Initial residual = 0.13442, Final residual = 0.012362, No Iterations 5
Pressure gradient source: uncorrected Ubar = 1.02003, pressure gradient = -2.79759
GAMG:  Solving for p, Initial residual = 0.226952, Final residual = 0.019729, No Iterations 15
time step continuity errors : sum local = 0.00132241, global = 5.35325e-19, cumulative = 1.68219e-18
Pressure gradient source: uncorrected Ubar = 1.00263, pressure gradient = 0.506625
smoothSolver:  Solving for omega, Initial residual = 0.00800488, Final residual = 0.000137281, No Iterations 1
smoothSolver:  Solving for k, Initial residual = 0.0150881, Final residual = 0.00129811, No Iterations 4
ExecutionTime = 0.023819 s  ClockTime = 0 s

Time = 5s

smoothSolver:  Solving for Ux, Initial residual = 0.0253045, Final residual = 0.00239323, No Iterations 4
smoothSolver:  Solving for Uy, Initial residual = 0.103492, Final residual = 0.010132, No Iterations 5
Pressure gradient source: uncorrected Ubar = 0.999091, pressure gradient = 0.678406
GAMG:  Solving for p, Initial residual = 0.258249, Final residual = 0.0249685, No Iterations 17
time step continuity errors : sum local = 0.00151788, global = -3.38136e-18, cumulative = -1.69916e-18
Pressure gradient source: uncorrected Ubar = 0.999698, pressure gradient = 0.563595
smoothSolver:  Solving for omega, Initial residual = 0.00327503, Final residual = 8.15835e-05, No Iterations 1
smoothSolver:  Solving for k, Initial residual = 0.0117272, Final residual = 0.00101104, No Iterations 5
ExecutionTime = 0.02711 s  ClockTime = 0 s

Time = 6s

smoothSolver:  Solving for Ux, Initial residual = 0.0210565, Final residual = 0.00144518, No Iterations 5
smoothSolver:  Solving for Uy, Initial residual = 0.12792, Final residual = 0.0119003, No Iterations 5
Pressure gradient source: uncorrected Ubar = 1.00212, pressure gradient = 0.159193
GAMG:  Solving for p, Initial residual = 0.271252, Final residual = 0.0261089, No Iterations 10
time step continuity errors : sum local = 0.00100748, global = 3.79471e-18, cumulative = 2.09554e-18
Pressure gradient source: uncorrected Ubar = 1.00019, pressure gradient = 0.527586
smoothSolver:  Solving for omega, Initial residual = 0.00215751, Final residual = 5.29411e-05, No Iterations 1
smoothSolver:  Solving for k, Initial residual = 0.0145809, Final residual = 0.000950438, No Iterations 6
ExecutionTime = 0.029981 s  ClockTime = 0 s

Time = 7s

smoothSolver:  Solving for Ux, Initial residual = 0.0190799, Final residual = 0.00131857, No Iterations 5
smoothSolver:  Solving for Uy, Initial residual = 0.0580342, Final residual = 0.00408293, No Iterations 5
Pressure gradient source: uncorrected Ubar = 0.99908, pressure gradient = 0.708468
GAMG:  Solving for p, Initial residual = 0.221131, Final residual = 0.0210653, No Iterations 15
time step continuity errors : sum local = 0.000408487, global = -1.00331e-18, cumulative = 1.09223e-18
Pressure gradient source: uncorrected Ubar = 0.999819, pressure gradient = 0.563199
smoothSolver:  Solving for omega, Initial residual = 0.0010895, Final residual = 2.92536e-05, No Iterations 1
smoothSolver:  Solving for k, Initial residual = 0.0249462, Final residual = 0.00169302, No Iterations 6
ExecutionTime = 0.033129 s  ClockTime = 0 s

Time = 8s

smoothSolver:  Solving for Ux, Initial residual = 0.0191164, Final residual = 0.00131451, No Iterations 5
smoothSolver:  Solving for Uy, Initial residual = 0.0573474, Final residual = 0.00438367, No Iterations 5
Pressure gradient source: uncorrected Ubar = 1.0003, pressure gradient = 0.500634
GAMG:  Solving for p, Initial residual = 0.054873, Final residual = 0.00526615, No Iterations 5
time step continuity errors : sum local = 0.000139548, global = -1.83298e-18, cumulative = -7.40745e-19
Pressure gradient source: uncorrected Ubar = 0.999989, pressure gradient = 0.56553
smoothSolver:  Solving for omega, Initial residual = 0.000636117, Final residual = 1.87362e-05, No Iterations 1
smoothSolver:  Solving for k, Initial residual = 0.0375961, Final residual = 0.00264253, No Iterations 6
ExecutionTime = 0.035873 s  ClockTime = 0 s

Time = 9s

smoothSolver:  Solving for Ux, Initial residual = 0.0187371, Final residual = 0.00130626, No Iterations 5
smoothSolver:  Solving for Uy, Initial residual = 0.0582928, Final residual = 0.0046829, No Iterations 5
Pressure gradient source: uncorrected Ubar = 0.999128, pressure gradient = 0.754409
GAMG:  Solving for p, Initial residual = 0.0977161, Final residual = 0.0096225, No Iterations 15
time step continuity errors : sum local = 0.000232587, global = -3.2255e-18, cumulative = -3.96625e-18
Pressure gradient source: uncorrected Ubar = 0.99984, pressure gradient = 0.600132
smoothSolver:  Solving for omega, Initial residual = 0.000344111, Final residual = 1.09405e-05, No Iterations 1
smoothSolver:  Solving for k, Initial residual = 0.0466577, Final residual = 0.00343318, No Iterations 6
ExecutionTime = 0.039007 s  ClockTime = 0 s

Time = 10s

smoothSolver:  Solving for Ux, Initial residual = 0.0192856, Final residual = 0.00133525, No Iterations 5
smoothSolver:  Solving for Uy, Initial residual = 0.0570485, Final residual = 0.00502365, No Iterations 5
Pressure gradient source: uncorrected Ubar = 0.999569, pressure gradient = 0.699424
GAMG:  Solving for p, Initial residual = 0.127714, Final residual = 0.0109326, No Iterations 16
time step continuity errors : sum local = 0.000198296, global = 1.65817e-17, cumulative = 1.26155e-17
Pressure gradient source: uncorrected Ubar = 0.999902, pressure gradient = 0.622815
smoothSolver:  Solving for omega, Initial residual = 0.000194208, Final residual = 7.41662e-06, No Iterations 1
smoothSolver:  Solving for k, Initial residual = 0.0395601, Final residual = 0.00298785, No Iterations 6
ExecutionTime = 0.042189 s  ClockTime = 0 s

Time = 11s

smoothSolver:  Solving for Ux, Initial residual = 0.0191071, Final residual = 0.00133449, No Iterations 5
smoothSolver:  Solving for Uy, Initial residual = 0.0585723, Final residual = 0.00533439, No Iterations 5
Pressure gradient source: uncorrected Ubar = 1.00068, pressure gradient = 0.455243
GAMG:  Solving for p, Initial residual = 0.14001, Final residual = 0.013608, No Iterations 14
time step continuity errors : sum local = 0.000159848, global = 7.07098e-18, cumulative = 1.96865e-17
Pressure gradient source: uncorrected Ubar = 1.00005, pressure gradient = 0.610806
smoothSolver:  Solving for omega, Initial residual = 0.000108026, Final residual = 4.76131e-06, No Iterations 1
smoothSolver:  Solving for k, Initial residual = 0.0310622, Final residual = 0.00242351, No Iterations 6
ExecutionTime = 0.045282 s  ClockTime = 0 s

Time = 12s

smoothSolver:  Solving for Ux, Initial residual = 0.0185599, Final residual = 0.00129346, No Iterations 5
smoothSolver:  Solving for Uy, Initial residual = 0.057771, Final residual = 0.00516392, No Iterations 5
Pressure gradient source: uncorrected Ubar = 1.00092, pressure gradient = 0.373497
GAMG:  Solving for p, Initial residual = 0.107041, Final residual = 0.010535, No Iterations 11
time step continuity errors : sum local = 9.55128e-05, global = 4.85858e-18, cumulative = 2.4545e-17
Pressure gradient source: uncorrected Ubar = 1.00008, pressure gradient = 0.590041
smoothSolver:  Solving for omega, Initial residual = 6.09702e-05, Final residual = 3.51321e-06, No Iterations 1
smoothSolver:  Solving for k, Initial residual = 0.0241223, Final residual = 0.0018979, No Iterations 6
ExecutionTime = 0.048262 s  ClockTime = 0 s

Time = 13s

smoothSolver:  Solving for Ux, Initial residual = 0.0178799, Final residual = 0.00124169, No Iterations 5
smoothSolver:  Solving for Uy, Initial residual = 0.0568984, Final residual = 0.00515458, No Iterations 5
Pressure gradient source: uncorrected Ubar = 1.00119, pressure gradient = 0.267954
GAMG:  Solving for p, Initial residual = 0.0794519, Final residual = 0.00543986, No Iterations 4
time step continuity errors : sum local = 4.63995e-05, global = -4.73698e-18, cumulative = 1.98081e-17
Pressure gradient source: uncorrected Ubar = 1.00012, pressure gradient = 0.55857
smoothSolver:  Solving for omega, Initial residual = 3.48095e-05, Final residual = 2.55927e-06, No Iterations 1
smoothSolver:  Solving for k, Initial residual = 0.0187666, Final residual = 0.00151981, No Iterations 6
ExecutionTime = 0.051094 s  ClockTime = 0 s

Time = 14s

smoothSolver:  Solving for Ux, Initial residual = 0.0170362, Final residual = 0.00118195, No Iterations 5
smoothSolver:  Solving for Uy, Initial residual = 0.05063, Final residual = 0.00462254, No Iterations 5
Pressure gradient source: uncorrected Ubar = 1.00119, pressure gradient = 0.224054
GAMG:  Solving for p, Initial residual = 0.0830827, Final residual = 0.00489294, No Iterations 3
time step continuity errors : sum local = 3.78305e-05, global = 6.31466e-18, cumulative = 2.61227e-17
Pressure gradient source: uncorrected Ubar = 1.00012, pressure gradient = 0.525778
smoothSolver:  Solving for omega, Initial residual = 2.01925e-05, Final residual = 2.10379e-06, No Iterations 1
smoothSolver:  Solving for k, Initial residual = 0.0147735, Final residual = 0.00120334, No Iterations 6
ExecutionTime = 0.053665 s  ClockTime = 0 s

Time = 15s

smoothSolver:  Solving for Ux, Initial residual = 0.0161317, Final residual = 0.00112697, No Iterations 5
smoothSolver:  Solving for Uy, Initial residual = 0.0469989, Final residual = 0.00435826, No Iterations 5
Pressure gradient source: uncorrected Ubar = 1.00117, pressure gradient = 0.184208
GAMG:  Solving for p, Initial residual = 0.0897732, Final residual = 0.00627826, No Iterations 7
time step continuity errors : sum local = 4.01921e-05, global = -8.47456e-18, cumulative = 1.76482e-17
Pressure gradient source: uncorrected Ubar = 1.00011, pressure gradient = 0.492424
smoothSolver:  Solving for omega, Initial residual = 1.2161e-05, Final residual = 1.76382e-06, No Iterations 1
smoothSolver:  Solving for k, Initial residual = 0.0117649, Final residual = 0.000959131, No Iterations 6
ExecutionTime = 0.056464 s  ClockTime = 0 s

Time = 16s

smoothSolver:  Solving for Ux, Initial residual = 0.0152266, Final residual = 0.00107658, No Iterations 5
smoothSolver:  Solving for Uy, Initial residual = 0.0389402, Final residual = 0.00361675, No Iterations 5
Pressure gradient source: uncorrected Ubar = 1.00118, pressure gradient = 0.138206
GAMG:  Solving for p, Initial residual = 0.0944496, Final residual = 0.00915583, No Iterations 7
time step continuity errors : sum local = 4.31626e-05, global = -4.50963e-18, cumulative = 1.31385e-17
Pressure gradient source: uncorrected Ubar = 1.00012, pressure gradient = 0.457491
smoothSolver:  Solving for omega, Initial residual = 7.62872e-06, Final residual = 7.62872e-06, No Iterations 0
smoothSolver:  Solving for k, Initial residual = 0.00952542, Final residual = 0.000788713, No Iterations 6
ExecutionTime = 0.059249 s  ClockTime = 0 s

Time = 17s

smoothSolver:  Solving for Ux, Initial residual = 0.0142834, Final residual = 0.00102284, No Iterations 5
smoothSolver:  Solving for Uy, Initial residual = 0.0352384, Final residual = 0.00326523, No Iterations 5
Pressure gradient source: uncorrected Ubar = 1.00132, pressure gradient = 0.0479745
GAMG:  Solving for p, Initial residual = 0.0753261, Final residual = 0.00633311, No Iterations 8
time step continuity errors : sum local = 3.13966e-05, global = -2.54618e-18, cumulative = 1.05923e-17
Pressure gradient source: uncorrected Ubar = 1.00014, pressure gradient = 0.415117
smoothSolver:  Solving for omega, Initial residual = 7.71299e-06, Final residual = 7.71299e-06, No Iterations 0
smoothSolver:  Solving for k, Initial residual = 0.00768935, Final residual = 0.000641821, No Iterations 6
ExecutionTime = 0.062005 s  ClockTime = 0 s

Time = 18s

smoothSolver:  Solving for Ux, Initial residual = 0.0134772, Final residual = 0.000971669, No Iterations 5
smoothSolver:  Solving for Uy, Initial residual = 0.0338513, Final residual = 0.00317119, No Iterations 5
Pressure gradient source: uncorrected Ubar = 1.00106, pressure gradient = 0.0777708
GAMG:  Solving for p, Initial residual = 0.0653948, Final residual = 0.00543038, No Iterations 5
time step continuity errors : sum local = 2.58979e-05, global = 3.28479e-18, cumulative = 1.38771e-17
Pressure gradient source: uncorrected Ubar = 1.0001, pressure gradient = 0.381728
smoothSolver:  Solving for omega, Initial residual = 7.79351e-06, Final residual = 7.79351e-06, No Iterations 0
smoothSolver:  Solving for k, Initial residual = 0.00606234, Final residual = 0.000507506, No Iterations 6
ExecutionTime = 0.064698 s  ClockTime = 0 s

Time = 19s

smoothSolver:  Solving for Ux, Initial residual = 0.0125975, Final residual = 0.00092072, No Iterations 5
smoothSolver:  Solving for Uy, Initial residual = 0.0339773, Final residual = 0.00318868, No Iterations 5
Pressure gradient source: uncorrected Ubar = 1.00112, pressure gradient = 0.0140789
GAMG:  Solving for p, Initial residual = 0.0647047, Final residual = 0.00631925, No Iterations 4
time step continuity errors : sum local = 2.72517e-05, global = 2.74981e-19, cumulative = 1.41521e-17
Pressure gradient source: uncorrected Ubar = 1.00012, pressure gradient = 0.343758
smoothSolver:  Solving for omega, Initial residual = 7.86382e-06, Final residual = 7.86382e-06, No Iterations 0
smoothSolver:  Solving for k, Initial residual = 0.00543249, Final residual = 0.000417357, No Iterations 6
ExecutionTime = 0.067307 s  ClockTime = 0 s

Time = 20s

smoothSolver:  Solving for Ux, Initial residual = 0.0119166, Final residual = 0.000879523, No Iterations 5
smoothSolver:  Solving for Uy, Initial residual = 0.0329062, Final residual = 0.00310047, No Iterations 5
Pressure gradient source: uncorrected Ubar = 1.00094, pressure gradient = 0.0293044
GAMG:  Solving for p, Initial residual = 0.0673744, Final residual = 0.00556278, No Iterations 5
time step continuity errors : sum local = 2.30108e-05, global = 2.21669e-18, cumulative = 1.63688e-17
Pressure gradient source: uncorrected Ubar = 1.00009, pressure gradient = 0.312427
smoothSolver:  Solving for omega, Initial residual = 7.92852e-06, Final residual = 7.92852e-06, No Iterations 0
smoothSolver:  Solving for k, Initial residual = 0.00518144, Final residual = 0.000392454, No Iterations 6
ExecutionTime = 0.069927 s  ClockTime = 0 s

Time = 21s

smoothSolver:  Solving for Ux, Initial residual = 0.0110858, Final residual = 0.000837839, No Iterations 5
smoothSolver:  Solving for Uy, Initial residual = 0.0333627, Final residual = 0.00308455, No Iterations 5
Pressure gradient source: uncorrected Ubar = 1.00104, pressure gradient = -0.0411272
GAMG:  Solving for p, Initial residual = 0.0756355, Final residual = 0.00741245, No Iterations 5
time step continuity errors : sum local = 2.98136e-05, global = 6.75638e-18, cumulative = 2.31252e-17
Pressure gradient source: uncorrected Ubar = 1.00011, pressure gradient = 0.275254
smoothSolver:  Solving for omega, Initial residual = 7.97684e-06, Final residual = 7.97684e-06, No Iterations 0
smoothSolver:  Solving for k, Initial residual = 0.00529806, Final residual = 0.000389295, No Iterations 6
ExecutionTime = 0.072576 s  ClockTime = 0 s

Time = 22s

smoothSolver:  Solving for Ux, Initial residual = 0.0105685, Final residual = 0.000807618, No Iterations 5
smoothSolver:  Solving for Uy, Initial residual = 0.032308, Final residual = 0.00305668, No Iterations 5
Pressure gradient source: uncorrected Ubar = 1.0008, pressure gradient = 0.000205374
GAMG:  Solving for p, Initial residual = 0.0777115, Final residual = 0.00751399, No Iterations 4
time step continuity errors : sum local = 2.92496e-05, global = 3.72099e-18, cumulative = 2.68462e-17
Pressure gradient source: uncorrected Ubar = 1.00008, pressure gradient = 0.248146
smoothSolver:  Solving for omega, Initial residual = 8.0121e-06, Final residual = 8.0121e-06, No Iterations 0
smoothSolver:  Solving for k, Initial residual = 0.0052923, Final residual = 0.000393194, No Iterations 6
ExecutionTime = 0.07519 s  ClockTime = 0 s

Time = 23s

smoothSolver:  Solving for Ux, Initial residual = 0.00990045, Final residual = 0.000775236, No Iterations 5
smoothSolver:  Solving for Uy, Initial residual = 0.0336576, Final residual = 0.00312504, No Iterations 5
Pressure gradient source: uncorrected Ubar = 1.00089, pressure gradient = -0.0654212
GAMG:  Solving for p, Initial residual = 0.0790302, Final residual = 0.00771548, No Iterations 7
time step continuity errors : sum local = 2.80163e-05, global = -1.66737e-18, cumulative = 2.51788e-17
Pressure gradient source: uncorrected Ubar = 1.00009, pressure gradient = 0.215441
smoothSolver:  Solving for omega, Initial residual = 8.04695e-06, Final residual = 8.04695e-06, No Iterations 0
smoothSolver:  Solving for k, Initial residual = 0.00552603, Final residual = 0.000403715, No Iterations 6
ExecutionTime = 0.077938 s  ClockTime = 0 s

Time = 24s

smoothSolver:  Solving for Ux, Initial residual = 0.0093828, Final residual = 0.000750094, No Iterations 5
smoothSolver:  Solving for Uy, Initial residual = 0.032757, Final residual = 0.0031571, No Iterations 5
Pressure gradient source: uncorrected Ubar = 1.00076, pressure gradient = -0.0540325
GAMG:  Solving for p, Initial residual = 0.0754057, Final residual = 0.00676231, No Iterations 5
time step continuity errors : sum local = 2.2616e-05, global = 2.45208e-18, cumulative = 2.76309e-17
Pressure gradient source: uncorrected Ubar = 1.00008, pressure gradient = 0.188154
smoothSolver:  Solving for omega, Initial residual = 8.06595e-06, Final residual = 8.06595e-06, No Iterations 0
smoothSolver:  Solving for k, Initial residual = 0.0055764, Final residual = 0.000421881, No Iterations 6
ExecutionTime = 0.080581 s  ClockTime = 0 s

Time = 25s

smoothSolver:  Solving for Ux, Initial residual = 0.00899715, Final residual = 0.000732515, No Iterations 5
smoothSolver:  Solving for Uy, Initial residual = 0.032814, Final residual = 0.0031064, No Iterations 5
Pressure gradient source: uncorrected Ubar = 1.00067, pressure gradient = -0.0524959
GAMG:  Solving for p, Initial residual = 0.0743454, Final residual = 0.0050012, No Iterations 3
time step continuity errors : sum local = 1.54084e-05, global = 1.47622e-18, cumulative = 2.91071e-17
Pressure gradient source: uncorrected Ubar = 1.00007, pressure gradient = 0.16447
smoothSolver:  Solving for omega, Initial residual = 8.09521e-06, Final residual = 8.09521e-06, No Iterations 0
smoothSolver:  Solving for k, Initial residual = 0.00568836, Final residual = 0.000434935, No Iterations 6
ExecutionTime = 0.083132 s  ClockTime = 0 s

Time = 26s

smoothSolver:  Solving for Ux, Initial residual = 0.00835216, Final residual = 0.000702198, No Iterations 5
smoothSolver:  Solving for Uy, Initial residual = 0.0355361, Final residual = 0.0031019, No Iterations 5
Pressure gradient source: uncorrected Ubar = 1.0008, pressure gradient = -0.125527
GAMG:  Solving for p, Initial residual = 0.0800439, Final residual = 0.00478625, No Iterations 3
time step continuity errors : sum local = 1.3168e-05, global = 2.16226e-18, cumulative = 3.12694e-17
Pressure gradient source: uncorrected Ubar = 1.00009, pressure gradient = 0.13361
smoothSolver:  Solving for omega, Initial residual = 8.11162e-06, Final residual = 8.11162e-06, No Iterations 0
smoothSolver:  Solving for k, Initial residual = 0.0059632, Final residual = 0.000445522, No Iterations 6
ExecutionTime = 0.085685 s  ClockTime = 0 s

Time = 27s

smoothSolver:  Solving for Ux, Initial residual = 0.00809034, Final residual = 0.000690987, No Iterations 5
smoothSolver:  Solving for Uy, Initial residual = 0.0328822, Final residual = 0.00313188, No Iterations 5
Pressure gradient source: uncorrected Ubar = 1.00055, pressure gradient = -0.0683671
GAMG:  Solving for p, Initial residual = 0.069394, Final residual = 0.00638748, No Iterations 3
time step continuity errors : sum local = 1.65115e-05, global = -3.90515e-18, cumulative = 2.73642e-17
Pressure gradient source: uncorrected Ubar = 1.00005, pressure gradient = 0.114239
smoothSolver:  Solving for omega, Initial residual = 8.11677e-06, Final residual = 8.11677e-06, No Iterations 0
smoothSolver:  Solving for k, Initial residual = 0.00592741, Final residual = 0.000463931, No Iterations 6
ExecutionTime = 0.088251 s  ClockTime = 0 s

Time = 28s

smoothSolver:  Solving for Ux, Initial residual = 0.00783911, Final residual = 0.000682937, No Iterations 5
smoothSolver:  Solving for Uy, Initial residual = 0.0333566, Final residual = 0.00309658, No Iterations 5
Pressure gradient source: uncorrected Ubar = 1.00055, pressure gradient = -0.0869773
GAMG:  Solving for p, Initial residual = 0.0703701, Final residual = 0.00572351, No Iterations 3
time step continuity errors : sum local = 1.45095e-05, global = -1.00965e-17, cumulative = 1.72677e-17
Pressure gradient source: uncorrected Ubar = 1.00005, pressure gradient = 0.0948427
smoothSolver:  Solving for omega, Initial residual = 8.13186e-06, Final residual = 8.13186e-06, No Iterations 0
smoothSolver:  Solving for k, Initial residual = 0.00601229, Final residual = 0.000471696, No Iterations 6
ExecutionTime = 0.090806 s  ClockTime = 0 s

Time = 29s

smoothSolver:  Solving for Ux, Initial residual = 0.00737364, Final residual = 0.000661345, No Iterations 5
smoothSolver:  Solving for Uy, Initial residual = 0.0348999, Final residual = 0.00301014, No Iterations 5
Pressure gradient source: uncorrected Ubar = 1.00063, pressure gradient = -0.139141
GAMG:  Solving for p, Initial residual = 0.07914, Final residual = 0.00740814, No Iterations 3
time step continuity errors : sum local = 1.87266e-05, global = -1.09934e-18, cumulative = 1.61684e-17
Pressure gradient source: uncorrected Ubar = 1.00007, pressure gradient = 0.0706446
smoothSolver:  Solving for omega, Initial residual = 8.13935e-06, Final residual = 8.13935e-06, No Iterations 0
smoothSolver:  Solving for k, Initial residual = 0.00609733, Final residual = 0.000476327, No Iterations 6
ExecutionTime = 0.093384 s  ClockTime = 0 s

Time = 30s

smoothSolver:  Solving for Ux, Initial residual = 0.00704677, Final residual = 0.000647108, No Iterations 5
smoothSolver:  Solving for Uy, Initial residual = 0.0352812, Final residual = 0.00298445, No Iterations 5
Pressure gradient source: uncorrected Ubar = 1.00053, pressure gradient = -0.126746
GAMG:  Solving for p, Initial residual = 0.0759128, Final residual = 0.00664086, No Iterations 3
time step continuity errors : sum local = 1.66567e-05, global = -4.52348e-18, cumulative = 1.16449e-17
Pressure gradient source: uncorrected Ubar = 1.00005, pressure gradient = 0.0509793
smoothSolver:  Solving for omega, Initial residual = 8.13688e-06, Final residual = 8.13688e-06, No Iterations 0
smoothSolver:  Solving for k, Initial residual = 0.00621064, Final residual = 0.000483808, No Iterations 6
ExecutionTime = 0.095966 s  ClockTime = 0 s

Time = 31s

smoothSolver:  Solving for Ux, Initial residual = 0.00696199, Final residual = 0.000647225, No Iterations 5
smoothSolver:  Solving for Uy, Initial residual = 0.0335452, Final residual = 0.00292865, No Iterations 5
Pressure gradient source: uncorrected Ubar = 1.00041, pressure gradient = -0.0995105
GAMG:  Solving for p, Initial residual = 0.0670091, Final residual = 0.00521112, No Iterations 3
time step continuity errors : sum local = 1.29081e-05, global = 1.00138e-17, cumulative = 2.16587e-17
Pressure gradient source: uncorrected Ubar = 1.00004, pressure gradient = 0.0375007
smoothSolver:  Solving for omega, Initial residual = 8.14546e-06, Final residual = 8.14546e-06, No Iterations 0
smoothSolver:  Solving for k, Initial residual = 0.00620554, Final residual = 0.000488941, No Iterations 6
ExecutionTime = 0.098502 s  ClockTime = 0 s

Time = 32s

smoothSolver:  Solving for Ux, Initial residual = 0.00677254, Final residual = 0.000638825, No Iterations 5
smoothSolver:  Solving for Uy, Initial residual = 0.0336373, Final residual = 0.00288512, No Iterations 5
Pressure gradient source: uncorrected Ubar = 1.00046, pressure gradient = -0.133426
GAMG:  Solving for p, Initial residual = 0.0685959, Final residual = 0.00476935, No Iterations 3
time step continuity errors : sum local = 1.1645e-05, global = -3.30072e-18, cumulative = 1.8358e-17
Pressure gradient source: uncorrected Ubar = 1.00004, pressure gradient = 0.0210682
smoothSolver:  Solving for omega, Initial residual = 8.15027e-06, Final residual = 8.15027e-06, No Iterations 0
smoothSolver:  Solving for k, Initial residual = 0.00624605, Final residual = 0.000492666, No Iterations 6
ExecutionTime = 0.1011 s  ClockTime = 0 s

Time = 33s

smoothSolver:  Solving for Ux, Initial residual = 0.00630241, Final residual = 0.000616399, No Iterations 5
smoothSolver:  Solving for Uy, Initial residual = 0.0365763, Final residual = 0.00280547, No Iterations 5
Pressure gradient source: uncorrected Ubar = 1.00053, pressure gradient = -0.178073
GAMG:  Solving for p, Initial residual = 0.0789243, Final residual = 0.00610148, No Iterations 5
time step continuity errors : sum local = 1.55063e-05, global = 8.1547e-18, cumulative = 2.65127e-17
Pressure gradient source: uncorrected Ubar = 1.00006, pressure gradient = 0.000363123
smoothSolver:  Solving for omega, Initial residual = 8.15202e-06, Final residual = 8.15202e-06, No Iterations 0
smoothSolver:  Solving for k, Initial residual = 0.00633826, Final residual = 0.000499069, No Iterations 6
ExecutionTime = 0.10382 s  ClockTime = 0 s

Time = 34s

smoothSolver:  Solving for Ux, Initial residual = 0.00615834, Final residual = 0.00061422, No Iterations 5
smoothSolver:  Solving for Uy, Initial residual = 0.035701, Final residual = 0.00288606, No Iterations 5
Pressure gradient source: uncorrected Ubar = 1.00036, pressure gradient = -0.134296
GAMG:  Solving for p, Initial residual = 0.0733333, Final residual = 0.0070478, No Iterations 3
time step continuity errors : sum local = 1.79682e-05, global = -7.11541e-20, cumulative = 2.64415e-17
Pressure gradient source: uncorrected Ubar = 1.00003, pressure gradient = -0.0118592
smoothSolver:  Solving for omega, Initial residual = 8.14558e-06, Final residual = 8.14558e-06, No Iterations 0
smoothSolver:  Solving for k, Initial residual = 0.00630786, Final residual = 0.000503136, No Iterations 6
ExecutionTime = 0.106448 s  ClockTime = 0 s

Time = 35s

smoothSolver:  Solving for Ux, Initial residual = 0.00613156, Final residual = 0.000411972, No Iterations 6
smoothSolver:  Solving for Uy, Initial residual = 0.0344628, Final residual = 0.00289424, No Iterations 5
Pressure gradient source: uncorrected Ubar = 1.00026, pressure gradient = -0.107114
GAMG:  Solving for p, Initial residual = 0.0662353, Final residual = 0.00539611, No Iterations 3
time step continuity errors : sum local = 1.37467e-05, global = -2.28974e-18, cumulative = 2.41518e-17
Pressure gradient source: uncorrected Ubar = 1.00002, pressure gradient = -0.0197407
smoothSolver:  Solving for omega, Initial residual = 8.14558e-06, Final residual = 8.14558e-06, No Iterations 0
smoothSolver:  Solving for k, Initial residual = 0.00631453, Final residual = 0.000503028, No Iterations 6
ExecutionTime = 0.109053 s  ClockTime = 0 s

Time = 36s

smoothSolver:  Solving for Ux, Initial residual = 0.00599423, Final residual = 0.000408058, No Iterations 6
smoothSolver:  Solving for Uy, Initial residual = 0.0363768, Final residual = 0.00307276, No Iterations 5
Pressure gradient source: uncorrected Ubar = 1.00032, pressure gradient = -0.138585
GAMG:  Solving for p, Initial residual = 0.0669615, Final residual = 0.00482983, No Iterations 3
time step continuity errors : sum local = 1.21804e-05, global = 5.70887e-19, cumulative = 2.47227e-17
Pressure gradient source: uncorrected Ubar = 1.00003, pressure gradient = -0.0308169
smoothSolver:  Solving for omega, Initial residual = 8.14335e-06, Final residual = 8.14335e-06, No Iterations 0
smoothSolver:  Solving for k, Initial residual = 0.00629521, Final residual = 0.000500087, No Iterations 6
ExecutionTime = 0.111605 s  ClockTime = 0 s

Time = 37s

smoothSolver:  Solving for Ux, Initial residual = 0.00570195, Final residual = 0.000399027, No Iterations 6
smoothSolver:  Solving for Uy, Initial residual = 0.0390029, Final residual = 0.00301454, No Iterations 5
Pressure gradient source: uncorrected Ubar = 1.00038, pressure gradient = -0.171353
GAMG:  Solving for p, Initial residual = 0.0774517, Final residual = 0.00673592, No Iterations 3
time step continuity errors : sum local = 1.63529e-05, global = -1.56372e-18, cumulative = 2.3159e-17
Pressure gradient source: uncorrected Ubar = 1.00004, pressure gradient = -0.0449919
smoothSolver:  Solving for omega, Initial residual = 8.136e-06, Final residual = 8.136e-06, No Iterations 0
smoothSolver:  Solving for k, Initial residual = 0.00629971, Final residual = 0.000497773, No Iterations 6
ExecutionTime = 0.114187 s  ClockTime = 0 s

Time = 38s

smoothSolver:  Solving for Ux, Initial residual = 0.00540964, Final residual = 0.000391699, No Iterations 6
smoothSolver:  Solving for Uy, Initial residual = 0.0423227, Final residual = 0.00310736, No Iterations 5
Pressure gradient source: uncorrected Ubar = 1.00034, pressure gradient = -0.171076
GAMG:  Solving for p, Initial residual = 0.0784822, Final residual = 0.00497476, No Iterations 3
time step continuity errors : sum local = 1.19772e-05, global = -3.25368e-18, cumulative = 1.99053e-17
Pressure gradient source: uncorrected Ubar = 1.00003, pressure gradient = -0.0575584
smoothSolver:  Solving for omega, Initial residual = 8.12853e-06, Final residual = 8.12853e-06, No Iterations 0
smoothSolver:  Solving for k, Initial residual = 0.00622607, Final residual = 0.000496107, No Iterations 6
ExecutionTime = 0.11674 s  ClockTime = 0 s

Time = 39s

smoothSolver:  Solving for Ux, Initial residual = 0.0054372, Final residual = 0.000396764, No Iterations 6
smoothSolver:  Solving for Uy, Initial residual = 0.0393113, Final residual = 0.00309382, No Iterations 5
Pressure gradient source: uncorrected Ubar = 1.00019, pressure gradient = -0.125587
GAMG:  Solving for p, Initial residual = 0.0675196, Final residual = 0.00501174, No Iterations 3
time step continuity errors : sum local = 1.17836e-05, global = -1.0173e-18, cumulative = 1.8888e-17
Pressure gradient source: uncorrected Ubar = 1.00001, pressure gradient = -0.0625833
smoothSolver:  Solving for omega, Initial residual = 8.12075e-06, Final residual = 8.12075e-06, No Iterations 0
smoothSolver:  Solving for k, Initial residual = 0.00619156, Final residual = 0.000494253, No Iterations 6
ExecutionTime = 0.119309 s  ClockTime = 0 s

Time = 40s

smoothSolver:  Solving for Ux, Initial residual = 0.0053899, Final residual = 0.000396728, No Iterations 6
smoothSolver:  Solving for Uy, Initial residual = 0.0396417, Final residual = 0.00319765, No Iterations 5
Pressure gradient source: uncorrected Ubar = 1.00021, pressure gradient = -0.138692
GAMG:  Solving for p, Initial residual = 0.0639964, Final residual = 0.0043396, No Iterations 3
time step continuity errors : sum local = 9.95238e-06, global = -6.99532e-18, cumulative = 1.18927e-17
Pressure gradient source: uncorrected Ubar = 1.00002, pressure gradient = -0.0687418
smoothSolver:  Solving for omega, Initial residual = 8.11796e-06, Final residual = 8.11796e-06, No Iterations 0
smoothSolver:  Solving for k, Initial residual = 0.00612699, Final residual = 0.000486396, No Iterations 6
ExecutionTime = 0.121847 s  ClockTime = 0 s

Time = 41s

smoothSolver:  Solving for Ux, Initial residual = 0.00525786, Final residual = 0.000393005, No Iterations 6
smoothSolver:  Solving for Uy, Initial residual = 0.0417307, Final residual = 0.00328525, No Iterations 5
Pressure gradient source: uncorrected Ubar = 1.00024, pressure gradient = -0.15516
GAMG:  Solving for p, Initial residual = 0.0667359, Final residual = 0.00306722, No Iterations 3
time step continuity errors : sum local = 6.75865e-06, global = 8.84309e-19, cumulative = 1.2777e-17
Pressure gradient source: uncorrected Ubar = 1.00002, pressure gradient = -0.0764061
smoothSolver:  Solving for omega, Initial residual = 8.113e-06, Final residual = 8.113e-06, No Iterations 0
smoothSolver:  Solving for k, Initial residual = 0.0060621, Final residual = 0.000480965, No Iterations 6
ExecutionTime = 0.12442 s  ClockTime = 0 s

Time = 42s

smoothSolver:  Solving for Ux, Initial residual = 0.00502746, Final residual = 0.00038475, No Iterations 6
smoothSolver:  Solving for Uy, Initial residual = 0.0446573, Final residual = 0.00325513, No Iterations 5
Pressure gradient source: uncorrected Ubar = 1.00028, pressure gradient = -0.176989
GAMG:  Solving for p, Initial residual = 0.0723575, Final residual = 0.00555108, No Iterations 3
time step continuity errors : sum local = 1.18987e-05, global = -3.4513e-18, cumulative = 9.32568e-18
Pressure gradient source: uncorrected Ubar = 1.00003, pressure gradient = -0.0861722
smoothSolver:  Solving for omega, Initial residual = 8.10617e-06, Final residual = 8.10617e-06, No Iterations 0
smoothSolver:  Solving for k, Initial residual = 0.00596952, Final residual = 0.000472394, No Iterations 6
ExecutionTime = 0.126995 s  ClockTime = 0 s

Time = 43s

smoothSolver:  Solving for Ux, Initial residual = 0.00474157, Final residual = 0.000375504, No Iterations 6
smoothSolver:  Solving for Uy, Initial residual = 0.0470946, Final residual = 0.00335919, No Iterations 5
Pressure gradient source: uncorrected Ubar = 1.00028, pressure gradient = -0.184795
GAMG:  Solving for p, Initial residual = 0.0766388, Final residual = 0.0063019, No Iterations 3
time step continuity errors : sum local = 1.2994e-05, global = 6.11558e-19, cumulative = 9.93723e-18
Pressure gradient source: uncorrected Ubar = 1.00003, pressure gradient = -0.0959487
smoothSolver:  Solving for omega, Initial residual = 8.09339e-06, Final residual = 8.09339e-06, No Iterations 0
smoothSolver:  Solving for k, Initial residual = 0.00588913, Final residual = 0.000467886, No Iterations 6
ExecutionTime = 0.129535 s  ClockTime = 0 s

Time = 44s

smoothSolver:  Solving for Ux, Initial residual = 0.00478511, Final residual = 0.000381354, No Iterations 6
smoothSolver:  Solving for Uy, Initial residual = 0.0433949, Final residual = 0.00335454, No Iterations 5
Pressure gradient source: uncorrected Ubar = 1.00012, pressure gradient = -0.137849
GAMG:  Solving for p, Initial residual = 0.0683287, Final residual = 0.00522143, No Iterations 3
time step continuity errors : sum local = 1.08933e-05, global = -2.63952e-18, cumulative = 7.29771e-18
Pressure gradient source: uncorrected Ubar = 1.00001, pressure gradient = -0.0982698
smoothSolver:  Solving for omega, Initial residual = 8.08773e-06, Final residual = 8.08773e-06, No Iterations 0
smoothSolver:  Solving for k, Initial residual = 0.00579938, Final residual = 0.000461962, No Iterations 6
ExecutionTime = 0.132104 s  ClockTime = 0 s

Time = 45s

smoothSolver:  Solving for Ux, Initial residual = 0.00477103, Final residual = 0.000381437, No Iterations 6
smoothSolver:  Solving for Uy, Initial residual = 0.0438595, Final residual = 0.00349668, No Iterations 5
Pressure gradient source: uncorrected Ubar = 1.00012, pressure gradient = -0.14169
GAMG:  Solving for p, Initial residual = 0.063218, Final residual = 0.0041267, No Iterations 3
time step continuity errors : sum local = 8.58689e-06, global = 8.33315e-19, cumulative = 8.13103e-18
Pressure gradient source: uncorrected Ubar = 1.00001, pressure gradient = -0.100844
smoothSolver:  Solving for omega, Initial residual = 8.08496e-06, Final residual = 8.08496e-06, No Iterations 0
smoothSolver:  Solving for k, Initial residual = 0.00570601, Final residual = 0.000454706, No Iterations 6
ExecutionTime = 0.134706 s  ClockTime = 0 s

Time = 46s

smoothSolver:  Solving for Ux, Initial residual = 0.00470509, Final residual = 0.000379061, No Iterations 6
smoothSolver:  Solving for Uy, Initial residual = 0.0456628, Final residual = 0.00361866, No Iterations 5
Pressure gradient source: uncorrected Ubar = 1.00013, pressure gradient = -0.146576
GAMG:  Solving for p, Initial residual = 0.0614272, Final residual = 0.00352364, No Iterations 3
time step continuity errors : sum local = 7.34228e-06, global = 7.58616e-18, cumulative = 1.57172e-17
Pressure gradient source: uncorrected Ubar = 1.00001, pressure gradient = -0.103821
smoothSolver:  Solving for omega, Initial residual = 8.07859e-06, Final residual = 8.07859e-06, No Iterations 0
smoothSolver:  Solving for k, Initial residual = 0.00560406, Final residual = 0.000442484, No Iterations 6
ExecutionTime = 0.137249 s  ClockTime = 0 s

Time = 47s

smoothSolver:  Solving for Ux, Initial residual = 0.00458212, Final residual = 0.000373466, No Iterations 6
smoothSolver:  Solving for Uy, Initial residual = 0.0484254, Final residual = 0.00368966, No Iterations 5
Pressure gradient source: uncorrected Ubar = 1.00015, pressure gradient = -0.155733
GAMG:  Solving for p, Initial residual = 0.0631306, Final residual = 0.00331064, No Iterations 3
time step continuity errors : sum local = 6.88556e-06, global = 9.82194e-19, cumulative = 1.66994e-17
Pressure gradient source: uncorrected Ubar = 1.00001, pressure gradient = -0.107759
smoothSolver:  Solving for omega, Initial residual = 8.06334e-06, Final residual = 8.06334e-06, No Iterations 0
smoothSolver:  Solving for k, Initial residual = 0.00548687, Final residual = 0.000433008, No Iterations 6
ExecutionTime = 0.139823 s  ClockTime = 0 s

Time = 48s

smoothSolver:  Solving for Ux, Initial residual = 0.00439538, Final residual = 0.000364742, No Iterations 6
smoothSolver:  Solving for Uy, Initial residual = 0.0506959, Final residual = 0.00375584, No Iterations 5
Pressure gradient source: uncorrected Ubar = 1.00017, pressure gradient = -0.167491
GAMG:  Solving for p, Initial residual = 0.0666518, Final residual = 0.00489992, No Iterations 3
time step continuity errors : sum local = 9.63265e-06, global = -4.14117e-18, cumulative = 1.25582e-17
Pressure gradient source: uncorrected Ubar = 1.00002, pressure gradient = -0.112923
smoothSolver:  Solving for omega, Initial residual = 8.01994e-06, Final residual = 8.01994e-06, No Iterations 0
smoothSolver:  Solving for k, Initial residual = 0.00536056, Final residual = 0.000424365, No Iterations 6
ExecutionTime = 0.14239 s  ClockTime = 0 s

Time = 49s

smoothSolver:  Solving for Ux, Initial residual = 0.0041451, Final residual = 0.000353616, No Iterations 6
smoothSolver:  Solving for Uy, Initial residual = 0.0557282, Final residual = 0.0040931, No Iterations 5
Pressure gradient source: uncorrected Ubar = 1.00019, pressure gradient = -0.178514
GAMG:  Solving for p, Initial residual = 0.0703134, Final residual = 0.00355821, No Iterations 4
time step continuity errors : sum local = 6.73452e-06, global = -2.45968e-18, cumulative = 1.00985e-17
Pressure gradient source: uncorrected Ubar = 1.00002, pressure gradient = -0.119092
smoothSolver:  Solving for omega, Initial residual = 8.01992e-06, Final residual = 8.01992e-06, No Iterations 0
smoothSolver:  Solving for k, Initial residual = 0.00527936, Final residual = 0.000411457, No Iterations 6
ExecutionTime = 0.145042 s  ClockTime = 0 s

Time = 50s

smoothSolver:  Solving for Ux, Initial residual = 0.00411207, Final residual = 0.000352729, No Iterations 6
smoothSolver:  Solving for Uy, Initial residual = 0.0499902, Final residual = 0.00401145, No Iterations 5
Pressure gradient source: uncorrected Ubar = 1.00009, pressure gradient = -0.148362
GAMG:  Solving for p, Initial residual = 0.068848, Final residual = 0.00510329, No Iterations 3
time step continuity errors : sum local = 9.19453e-06, global = 8.04462e-18, cumulative = 1.81432e-17
Pressure gradient source: uncorrected Ubar = 1, pressure gradient = -0.120478
smoothSolver:  Solving for omega, Initial residual = 8.01516e-06, Final residual = 8.01516e-06, No Iterations 0
smoothSolver:  Solving for k, Initial residual = 0.00509539, Final residual = 0.000407692, No Iterations 6
ExecutionTime = 0.147591 s  ClockTime = 0 s

Time = 51s

smoothSolver:  Solving for Ux, Initial residual = 0.0040891, Final residual = 0.00035129, No Iterations 6
smoothSolver:  Solving for Uy, Initial residual = 0.0512642, Final residual = 0.00414259, No Iterations 5
Pressure gradient source: uncorrected Ubar = 1.00007, pressure gradient = -0.143294
GAMG:  Solving for p, Initial residual = 0.0614026, Final residual = 0.00436664, No Iterations 3
time step continuity errors : sum local = 8.11134e-06, global = 3.3472e-18, cumulative = 2.14904e-17
Pressure gradient source: uncorrected Ubar = 1, pressure gradient = -0.121042
smoothSolver:  Solving for omega, Initial residual = 7.96783e-06, Final residual = 7.96783e-06, No Iterations 0
smoothSolver:  Solving for k, Initial residual = 0.00497859, Final residual = 0.00039852, No Iterations 6
ExecutionTime = 0.150145 s  ClockTime = 0 s

Time = 52s

smoothSolver:  Solving for Ux, Initial residual = 0.00405359, Final residual = 0.000348772, No Iterations 6
smoothSolver:  Solving for Uy, Initial residual = 0.0514274, Final residual = 0.00420141, No Iterations 5
Pressure gradient source: uncorrected Ubar = 1.00006, pressure gradient = -0.141003
GAMG:  Solving for p, Initial residual = 0.0557965, Final residual = 0.00421832, No Iterations 3
time step continuity errors : sum local = 8.0852e-06, global = 5.53049e-18, cumulative = 2.70208e-17
Pressure gradient source: uncorrected Ubar = 1, pressure gradient = -0.121276
smoothSolver:  Solving for omega, Initial residual = 7.93819e-06, Final residual = 7.93819e-06, No Iterations 0
smoothSolver:  Solving for k, Initial residual = 0.00485828, Final residual = 0.000383753, No Iterations 6
ExecutionTime = 0.152708 s  ClockTime = 0 s

Time = 53s

smoothSolver:  Solving for Ux, Initial residual = 0.00399658, Final residual = 0.000344681, No Iterations 6
smoothSolver:  Solving for Uy, Initial residual = 0.0523189, Final residual = 0.00424135, No Iterations 5
Pressure gradient source: uncorrected Ubar = 1.00006, pressure gradient = -0.140872
GAMG:  Solving for p, Initial residual = 0.052803, Final residual = 0.0040392, No Iterations 3
time step continuity errors : sum local = 7.67057e-06, global = 1.64573e-18, cumulative = 2.86666e-17
Pressure gradient source: uncorrected Ubar = 1, pressure gradient = -0.121531
smoothSolver:  Solving for omega, Initial residual = 7.9332e-06, Final residual = 7.9332e-06, No Iterations 0
smoothSolver:  Solving for k, Initial residual = 0.00473291, Final residual = 0.00037568, No Iterations 6
ExecutionTime = 0.155296 s  ClockTime = 0 s

Time = 54s

smoothSolver:  Solving for Ux, Initial residual = 0.00391268, Final residual = 0.000338876, No Iterations 6
smoothSolver:  Solving for Uy, Initial residual = 0.0536294, Final residual = 0.00426167, No Iterations 5
Pressure gradient source: uncorrected Ubar = 1.00006, pressure gradient = -0.142656
GAMG:  Solving for p, Initial residual = 0.0535434, Final residual = 0.00480201, No Iterations 3
time step continuity errors : sum local = 8.55596e-06, global = 8.90824e-19, cumulative = 2.95574e-17
Pressure gradient source: uncorrected Ubar = 1, pressure gradient = -0.122082
smoothSolver:  Solving for omega, Initial residual = 7.92472e-06, Final residual = 7.92472e-06, No Iterations 0
smoothSolver:  Solving for k, Initial residual = 0.00459617, Final residual = 0.00036388, No Iterations 6
ExecutionTime = 0.157862 s  ClockTime = 0 s

Time = 55s

smoothSolver:  Solving for Ux, Initial residual = 0.00379875, Final residual = 0.000331478, No Iterations 6
smoothSolver:  Solving for Uy, Initial residual = 0.0543116, Final residual = 0.00429848, No Iterations 5
Pressure gradient source: uncorrected Ubar = 1.00007, pressure gradient = -0.146147
GAMG:  Solving for p, Initial residual = 0.0561247, Final residual = 0.00241626, No Iterations 3
time step continuity errors : sum local = 4.20759e-06, global = 6.23009e-18, cumulative = 3.57875e-17
Pressure gradient source: uncorrected Ubar = 1, pressure gradient = -0.123135
smoothSolver:  Solving for omega, Initial residual = 7.8596e-06, Final residual = 7.8596e-06, No Iterations 0
smoothSolver:  Solving for k, Initial residual = 0.00445907, Final residual = 0.000351226, No Iterations 6
ExecutionTime = 0.160463 s  ClockTime = 0 s

Time = 56s

smoothSolver:  Solving for Ux, Initial residual = 0.00364864, Final residual = 0.000322575, No Iterations 6
smoothSolver:  Solving for Uy, Initial residual = 0.0562235, Final residual = 0.00438113, No Iterations 5
Pressure gradient source: uncorrected Ubar = 1.00009, pressure gradient = -0.150996
GAMG:  Solving for p, Initial residual = 0.0570656, Final residual = 0.00292892, No Iterations 3
time step continuity errors : sum local = 5.03519e-06, global = 7.93543e-18, cumulative = 4.37229e-17
Pressure gradient source: uncorrected Ubar = 1.00001, pressure gradient = -0.124825
smoothSolver:  Solving for omega, Initial residual = 7.85345e-06, Final residual = 7.85345e-06, No Iterations 0
smoothSolver:  Solving for k, Initial residual = 0.00431492, Final residual = 0.00033925, No Iterations 6
ExecutionTime = 0.163074 s  ClockTime = 0 s

Time = 57s

smoothSolver:  Solving for Ux, Initial residual = 0.00347373, Final residual = 0.000313123, No Iterations 6
smoothSolver:  Solving for Uy, Initial residual = 0.0604996, Final residual = 0.00469867, No Iterations 5
Pressure gradient source: uncorrected Ubar = 1.00009, pressure gradient = -0.154423
GAMG:  Solving for p, Initial residual = 0.0602718, Final residual = 0.00467787, No Iterations 4
time step continuity errors : sum local = 6.81241e-06, global = 2.07486e-18, cumulative = 4.57978e-17
Pressure gradient source: uncorrected Ubar = 1.00001, pressure gradient = -0.126884
smoothSolver:  Solving for omega, Initial residual = 7.84839e-06, Final residual = 7.84839e-06, No Iterations 0
smoothSolver:  Solving for k, Initial residual = 0.00421298, Final residual = 0.000329028, No Iterations 6
ExecutionTime = 0.16567 s  ClockTime = 0 s

Time = 58s

smoothSolver:  Solving for Ux, Initial residual = 0.00342153, Final residual = 0.000309526, No Iterations 6
smoothSolver:  Solving for Uy, Initial residual = 0.0544045, Final residual = 0.00449875, No Iterations 5
Pressure gradient source: uncorrected Ubar = 1.00004, pressure gradient = -0.138744
GAMG:  Solving for p, Initial residual = 0.0594166, Final residual = 0.00458942, No Iterations 3
time step continuity errors : sum local = 6.67447e-06, global = 2.41549e-18, cumulative = 4.82133e-17
Pressure gradient source: uncorrected Ubar = 0.999999, pressure gradient = -0.126609
smoothSolver:  Solving for omega, Initial residual = 7.84195e-06, Final residual = 7.84195e-06, No Iterations 0
smoothSolver:  Solving for k, Initial residual = 0.0040097, Final residual = 0.000315434, No Iterations 6
ExecutionTime = 0.168229 s  ClockTime = 0 s

Time = 59s

smoothSolver:  Solving for Ux, Initial residual = 0.00335571, Final residual = 0.000304901, No Iterations 6
smoothSolver:  Solving for Uy, Initial residual = 0.0522027, Final residual = 0.00433821, No Iterations 5
Pressure gradient source: uncorrected Ubar = 1.00004, pressure gradient = -0.139719
GAMG:  Solving for p, Initial residual = 0.0569759, Final residual = 0.00539866, No Iterations 4
time step continuity errors : sum local = 8.00404e-06, global = 3.1659e-18, cumulative = 5.13792e-17
Pressure gradient source: uncorrected Ubar = 1, pressure gradient = -0.126557
smoothSolver:  Solving for omega, Initial residual = 7.83692e-06, Final residual = 7.83692e-06, No Iterations 0
smoothSolver:  Solving for k, Initial residual = 0.00386082, Final residual = 0.000308555, No Iterations 6
ExecutionTime = 0.170828 s  ClockTime = 0 s

Time = 60s

smoothSolver:  Solving for Ux, Initial residual = 0.00328877, Final residual = 0.00030016, No Iterations 6
smoothSolver:  Solving for Uy, Initial residual = 0.048155, Final residual = 0.00409004, No Iterations 5
Pressure gradient source: uncorrected Ubar = 1.00004, pressure gradient = -0.138619
GAMG:  Solving for p, Initial residual = 0.0513127, Final residual = 0.00511665, No Iterations 4
time step continuity errors : sum local = 7.68631e-06, global = 1.88422e-18, cumulative = 5.32634e-17
Pressure gradient source: uncorrected Ubar = 1, pressure gradient = -0.126413
smoothSolver:  Solving for omega, Initial residual = 7.83377e-06, Final residual = 7.83377e-06, No Iterations 0
smoothSolver:  Solving for k, Initial residual = 0.00372074, Final residual = 0.00029523, No Iterations 6
ExecutionTime = 0.17345 s  ClockTime = 0 s

Time = 61s

smoothSolver:  Solving for Ux, Initial residual = 0.00322161, Final residual = 0.000294942, No Iterations 6
smoothSolver:  Solving for Uy, Initial residual = 0.0444292, Final residual = 0.00385369, No Iterations 5
Pressure gradient source: uncorrected Ubar = 1.00003, pressure gradient = -0.136981
GAMG:  Solving for p, Initial residual = 0.0461343, Final residual = 0.00369289, No Iterations 4
time step continuity errors : sum local = 5.66825e-06, global = 5.28015e-18, cumulative = 5.85435e-17
Pressure gradient source: uncorrected Ubar = 0.999999, pressure gradient = -0.126118
smoothSolver:  Solving for omega, Initial residual = 7.82908e-06, Final residual = 7.82908e-06, No Iterations 0
smoothSolver:  Solving for k, Initial residual = 0.00358636, Final residual = 0.000285784, No Iterations 6
ExecutionTime = 0.176084 s  ClockTime = 0 s

Time = 62s

smoothSolver:  Solving for Ux, Initial residual = 0.00315571, Final residual = 0.00028964, No Iterations 6
smoothSolver:  Solving for Uy, Initial residual = 0.0425406, Final residual = 0.00386343, No Iterations 5
Pressure gradient source: uncorrected Ubar = 1.00003, pressure gradient = -0.134952
GAMG:  Solving for p, Initial residual = 0.0407524, Final residual = 0.00245285, No Iterations 4
time step continuity errors : sum local = 3.71528e-06, global = 8.49501e-18, cumulative = 6.70386e-17
Pressure gradient source: uncorrected Ubar = 0.999998, pressure gradient = -0.125637
smoothSolver:  Solving for omega, Initial residual = 7.82379e-06, Final residual = 7.82379e-06, No Iterations 0
smoothSolver:  Solving for k, Initial residual = 0.00345497, Final residual = 0.000272949, No Iterations 6
ExecutionTime = 0.17868 s  ClockTime = 0 s

Time = 63s

smoothSolver:  Solving for Ux, Initial residual = 0.00309606, Final residual = 0.000284545, No Iterations 6
smoothSolver:  Solving for Uy, Initial residual = 0.0407572, Final residual = 0.00385652, No Iterations 5
Pressure gradient source: uncorrected Ubar = 1.00002, pressure gradient = -0.132653
GAMG:  Solving for p, Initial residual = 0.0377231, Final residual = 0.00210114, No Iterations 3
time step continuity errors : sum local = 3.33999e-06, global = 6.74627e-18, cumulative = 7.37848e-17
Pressure gradient source: uncorrected Ubar = 0.999998, pressure gradient = -0.124957
smoothSolver:  Solving for omega, Initial residual = 7.81806e-06, Final residual = 7.81806e-06, No Iterations 0
smoothSolver:  Solving for k, Initial residual = 0.0033274, Final residual = 0.000263991, No Iterations 6
ExecutionTime = 0.181223 s  ClockTime = 0 s

Time = 64s

smoothSolver:  Solving for Ux, Initial residual = 0.0030388, Final residual = 0.00027936, No Iterations 6
smoothSolver:  Solving for Uy, Initial residual = 0.0383723, Final residual = 0.00374465, No Iterations 5
Pressure gradient source: uncorrected Ubar = 1.00002, pressure gradient = -0.130813
GAMG:  Solving for p, Initial residual = 0.0381696, Final residual = 0.00374269, No Iterations 6
time step continuity errors : sum local = 5.91342e-06, global = 2.21843e-18, cumulative = 7.60033e-17
Pressure gradient source: uncorrected Ubar = 0.999997, pressure gradient = -0.124166
smoothSolver:  Solving for omega, Initial residual = 7.81245e-06, Final residual = 7.81245e-06, No Iterations 0
smoothSolver:  Solving for k, Initial residual = 0.00320583, Final residual = 0.000250705, No Iterations 6
ExecutionTime = 0.18402 s  ClockTime = 0 s

Time = 65s

smoothSolver:  Solving for Ux, Initial residual = 0.00298285, Final residual = 0.000274044, No Iterations 6
smoothSolver:  Solving for Uy, Initial residual = 0.0369286, Final residual = 0.00250396, No Iterations 6
Pressure gradient source: uncorrected Ubar = 1.00002, pressure gradient = -0.129451
GAMG:  Solving for p, Initial residual = 0.0413701, Final residual = 0.00387912, No Iterations 9
time step continuity errors : sum local = 5.98466e-06, global = 1.51164e-18, cumulative = 7.75149e-17
Pressure gradient source: uncorrected Ubar = 0.999997, pressure gradient = -0.123345
smoothSolver:  Solving for omega, Initial residual = 7.80652e-06, Final residual = 7.80652e-06, No Iterations 0
smoothSolver:  Solving for k, Initial residual = 0.00308959, Final residual = 0.000241575, No Iterations 6
ExecutionTime = 0.186954 s  ClockTime = 0 s

Time = 66s

smoothSolver:  Solving for Ux, Initial residual = 0.00292597, Final residual = 0.000268576, No Iterations 6
smoothSolver:  Solving for Uy, Initial residual = 0.0378245, Final residual = 0.00373078, No Iterations 5
Pressure gradient source: uncorrected Ubar = 1.00002, pressure gradient = -0.128352
GAMG:  Solving for p, Initial residual = 0.0414145, Final residual = 0.00379761, No Iterations 9
time step continuity errors : sum local = 5.5103e-06, global = 5.57295e-19, cumulative = 7.80722e-17
Pressure gradient source: uncorrected Ubar = 0.999997, pressure gradient = -0.122533
smoothSolver:  Solving for omega, Initial residual = 7.80037e-06, Final residual = 7.80037e-06, No Iterations 0
smoothSolver:  Solving for k, Initial residual = 0.00297137, Final residual = 0.000228359, No Iterations 6
ExecutionTime = 0.189788 s  ClockTime = 0 s

Time = 67s

smoothSolver:  Solving for Ux, Initial residual = 0.00286545, Final residual = 0.000262973, No Iterations 6
smoothSolver:  Solving for Uy, Initial residual = 0.0390946, Final residual = 0.00370976, No Iterations 5
Pressure gradient source: uncorrected Ubar = 1.00002, pressure gradient = -0.127649
GAMG:  Solving for p, Initial residual = 0.0411518, Final residual = 0.00403484, No Iterations 6
time step continuity errors : sum local = 5.45932e-06, global = -5.22418e-18, cumulative = 7.2848e-17
Pressure gradient source: uncorrected Ubar = 0.999998, pressure gradient = -0.121785
smoothSolver:  Solving for omega, Initial residual = 7.79449e-06, Final residual = 7.79449e-06, No Iterations 0
smoothSolver:  Solving for k, Initial residual = 0.00285275, Final residual = 0.000218753, No Iterations 6
ExecutionTime = 0.192562 s  ClockTime = 0 s

Time = 68s

smoothSolver:  Solving for Ux, Initial residual = 0.00279969, Final residual = 0.000257259, No Iterations 6
smoothSolver:  Solving for Uy, Initial residual = 0.0395658, Final residual = 0.00361939, No Iterations 5
Pressure gradient source: uncorrected Ubar = 1.00002, pressure gradient = -0.127215
GAMG:  Solving for p, Initial residual = 0.0408576, Final residual = 0.00372838, No Iterations 4
time step continuity errors : sum local = 4.71551e-06, global = 5.88373e-18, cumulative = 7.87317e-17
Pressure gradient source: uncorrected Ubar = 0.999998, pressure gradient = -0.12113
smoothSolver:  Solving for omega, Initial residual = 7.78854e-06, Final residual = 7.78854e-06, No Iterations 0
smoothSolver:  Solving for k, Initial residual = 0.00275956, Final residual = 0.000211088, No Iterations 6
ExecutionTime = 0.195202 s  ClockTime = 0 s

Time = 69s

smoothSolver:  Solving for Ux, Initial residual = 0.00272691, Final residual = 0.000251472, No Iterations 6
smoothSolver:  Solving for Uy, Initial residual = 0.0393328, Final residual = 0.00347497, No Iterations 5
Pressure gradient source: uncorrected Ubar = 1.00002, pressure gradient = -0.127207
GAMG:  Solving for p, Initial residual = 0.03967, Final residual = 0.00333364, No Iterations 3
time step continuity errors : sum local = 3.93168e-06, global = 2.77782e-18, cumulative = 8.15096e-17
Pressure gradient source: uncorrected Ubar = 0.999998, pressure gradient = -0.120615
smoothSolver:  Solving for omega, Initial residual = 7.78376e-06, Final residual = 7.78376e-06, No Iterations 0
smoothSolver:  Solving for k, Initial residual = 0.00268571, Final residual = 0.000197553, No Iterations 6
ExecutionTime = 0.197764 s  ClockTime = 0 s

Time = 70s

smoothSolver:  Solving for Ux, Initial residual = 0.00264817, Final residual = 0.00024583, No Iterations 6
smoothSolver:  Solving for Uy, Initial residual = 0.0411621, Final residual = 0.00343719, No Iterations 5
Pressure gradient source: uncorrected Ubar = 1.00002, pressure gradient = -0.127233
GAMG:  Solving for p, Initial residual = 0.0395232, Final residual = 0.00127591, No Iterations 4
time step continuity errors : sum local = 1.51461e-06, global = -1.02746e-18, cumulative = 8.04821e-17
Pressure gradient source: uncorrected Ubar = 0.999999, pressure gradient = -0.120229
smoothSolver:  Solving for omega, Initial residual = 7.77935e-06, Final residual = 7.77935e-06, No Iterations 0
smoothSolver:  Solving for k, Initial residual = 0.00260945, Final residual = 0.000189192, No Iterations 6
ExecutionTime = 0.200388 s  ClockTime = 0 s

Time = 71s

smoothSolver:  Solving for Ux, Initial residual = 0.00260463, Final residual = 0.00024224, No Iterations 6
smoothSolver:  Solving for Uy, Initial residual = 0.03822, Final residual = 0.00319687, No Iterations 5
Pressure gradient source: uncorrected Ubar = 1.00001, pressure gradient = -0.122122
GAMG:  Solving for p, Initial residual = 0.0418507, Final residual = 0.00370792, No Iterations 5
time step continuity errors : sum local = 4.11947e-06, global = 2.87845e-18, cumulative = 8.33605e-17
Pressure gradient source: uncorrected Ubar = 0.999997, pressure gradient = -0.119241
smoothSolver:  Solving for omega, Initial residual = 7.77483e-06, Final residual = 7.77483e-06, No Iterations 0
smoothSolver:  Solving for k, Initial residual = 0.00243863, Final residual = 0.000182465, No Iterations 6
ExecutionTime = 0.203068 s  ClockTime = 0 s

Time = 72s

smoothSolver:  Solving for Ux, Initial residual = 0.00257407, Final residual = 0.00023936, No Iterations 6
smoothSolver:  Solving for Uy, Initial residual = 0.0355069, Final residual = 0.00296904, No Iterations 5
Pressure gradient source: uncorrected Ubar = 1, pressure gradient = -0.119696
GAMG:  Solving for p, Initial residual = 0.0424946, Final residual = 0.00390461, No Iterations 5
time step continuity errors : sum local = 4.39756e-06, global = -9.70647e-19, cumulative = 8.23899e-17
Pressure gradient source: uncorrected Ubar = 0.999996, pressure gradient = -0.118089
smoothSolver:  Solving for omega, Initial residual = 7.76994e-06, Final residual = 7.76994e-06, No Iterations 0
smoothSolver:  Solving for k, Initial residual = 0.002308, Final residual = 0.000172919, No Iterations 6
ExecutionTime = 0.205735 s  ClockTime = 0 s

Time = 73s

smoothSolver:  Solving for Ux, Initial residual = 0.00254075, Final residual = 0.000236355, No Iterations 6
smoothSolver:  Solving for Uy, Initial residual = 0.0331242, Final residual = 0.00282457, No Iterations 5
Pressure gradient source: uncorrected Ubar = 1, pressure gradient = -0.119031
GAMG:  Solving for p, Initial residual = 0.0392688, Final residual = 0.00364574, No Iterations 5
time step continuity errors : sum local = 4.11783e-06, global = 3.53734e-18, cumulative = 8.59272e-17
Pressure gradient source: uncorrected Ubar = 0.999996, pressure gradient = -0.117032
smoothSolver:  Solving for omega, Initial residual = 7.76556e-06, Final residual = 7.76556e-06, No Iterations 0
smoothSolver:  Solving for k, Initial residual = 0.00221404, Final residual = 0.000166591, No Iterations 6
ExecutionTime = 0.208537 s  ClockTime = 0 s

Time = 74s

smoothSolver:  Solving for Ux, Initial residual = 0.00250622, Final residual = 0.000233225, No Iterations 6
smoothSolver:  Solving for Uy, Initial residual = 0.0310206, Final residual = 0.00274841, No Iterations 5
Pressure gradient source: uncorrected Ubar = 1, pressure gradient = -0.118147
GAMG:  Solving for p, Initial residual = 0.0350185, Final residual = 0.00311835, No Iterations 4
time step continuity errors : sum local = 3.49553e-06, global = -2.73594e-18, cumulative = 8.31913e-17
Pressure gradient source: uncorrected Ubar = 0.999997, pressure gradient = -0.116025
smoothSolver:  Solving for omega, Initial residual = 7.76194e-06, Final residual = 7.76194e-06, No Iterations 0
smoothSolver:  Solving for k, Initial residual = 0.00213215, Final residual = 0.000164835, No Iterations 6
ExecutionTime = 0.211239 s  ClockTime = 0 s

Time = 75s

smoothSolver:  Solving for Ux, Initial residual = 0.00247081, Final residual = 0.000229953, No Iterations 6
smoothSolver:  Solving for Uy, Initial residual = 0.0292613, Final residual = 0.00274482, No Iterations 5
Pressure gradient source: uncorrected Ubar = 1, pressure gradient = -0.117289
GAMG:  Solving for p, Initial residual = 0.0305437, Final residual = 0.00287491, No Iterations 3
time step continuity errors : sum local = 3.09597e-06, global = -3.14122e-18, cumulative = 8.00501e-17
Pressure gradient source: uncorrected Ubar = 0.999997, pressure gradient = -0.115065
smoothSolver:  Solving for omega, Initial residual = 7.75875e-06, Final residual = 7.75875e-06, No Iterations 0
smoothSolver:  Solving for k, Initial residual = 0.00206959, Final residual = 0.000159273, No Iterations 6
ExecutionTime = 0.213808 s  ClockTime = 0 s

Time = 76s

smoothSolver:  Solving for Ux, Initial residual = 0.002435, Final residual = 0.000226576, No Iterations 6
smoothSolver:  Solving for Uy, Initial residual = 0.0276148, Final residual = 0.0027574, No Iterations 5
Pressure gradient source: uncorrected Ubar = 1, pressure gradient = -0.116495
GAMG:  Solving for p, Initial residual = 0.0272268, Final residual = 0.00211096, No Iterations 3
time step continuity errors : sum local = 2.24034e-06, global = 1.04407e-17, cumulative = 9.04908e-17
Pressure gradient source: uncorrected Ubar = 0.999997, pressure gradient = -0.114154
smoothSolver:  Solving for omega, Initial residual = 7.75527e-06, Final residual = 7.75527e-06, No Iterations 0
smoothSolver:  Solving for k, Initial residual = 0.00202212, Final residual = 0.000157169, No Iterations 6
ExecutionTime = 0.216389 s  ClockTime = 0 s

Time = 77s

smoothSolver:  Solving for Ux, Initial residual = 0.00239903, Final residual = 0.000223127, No Iterations 6
smoothSolver:  Solving for Uy, Initial residual = 0.0262699, Final residual = 0.00185851, No Iterations 6
Pressure gradient source: uncorrected Ubar = 1.00001, pressure gradient = -0.115674
GAMG:  Solving for p, Initial residual = 0.0246999, Final residual = 0.00173933, No Iterations 3
time step continuity errors : sum local = 1.81162e-06, global = -1.88639e-18, cumulative = 8.86044e-17
Pressure gradient source: uncorrected Ubar = 0.999997, pressure gradient = -0.11328
smoothSolver:  Solving for omega, Initial residual = 7.75162e-06, Final residual = 7.75162e-06, No Iterations 0
smoothSolver:  Solving for k, Initial residual = 0.00197526, Final residual = 0.000155841, No Iterations 6
ExecutionTime = 0.219003 s  ClockTime = 0 s

Time = 78s

smoothSolver:  Solving for Ux, Initial residual = 0.00236308, Final residual = 0.000219631, No Iterations 6
smoothSolver:  Solving for Uy, Initial residual = 0.025056, Final residual = 0.00184284, No Iterations 6
Pressure gradient source: uncorrected Ubar = 1.00001, pressure gradient = -0.114863
GAMG:  Solving for p, Initial residual = 0.0219798, Final residual = 0.00116914, No Iterations 3
time step continuity errors : sum local = 1.21794e-06, global = -1.75446e-18, cumulative = 8.68499e-17
Pressure gradient source: uncorrected Ubar = 0.999997, pressure gradient = -0.11244
smoothSolver:  Solving for omega, Initial residual = 7.74821e-06, Final residual = 7.74821e-06, No Iterations 0
smoothSolver:  Solving for k, Initial residual = 0.00192944, Final residual = 0.000151572, No Iterations 6
ExecutionTime = 0.221575 s  ClockTime = 0 s

Time = 79s

smoothSolver:  Solving for Ux, Initial residual = 0.00232734, Final residual = 0.000216115, No Iterations 6
smoothSolver:  Solving for Uy, Initial residual = 0.0238456, Final residual = 0.00180862, No Iterations 6
Pressure gradient source: uncorrected Ubar = 1.00001, pressure gradient = -0.114129
GAMG:  Solving for p, Initial residual = 0.0208455, Final residual = 0.00158971, No Iterations 3
time step continuity errors : sum local = 1.59074e-06, global = -1.34256e-18, cumulative = 8.55074e-17
Pressure gradient source: uncorrected Ubar = 0.999997, pressure gradient = -0.111639
smoothSolver:  Solving for omega, Initial residual = 7.74495e-06, Final residual = 7.74495e-06, No Iterations 0
smoothSolver:  Solving for k, Initial residual = 0.00188525, Final residual = 0.000149283, No Iterations 6
ExecutionTime = 0.224177 s  ClockTime = 0 s

Time = 80s

smoothSolver:  Solving for Ux, Initial residual = 0.00229181, Final residual = 0.000212596, No Iterations 6
smoothSolver:  Solving for Uy, Initial residual = 0.0229232, Final residual = 0.00178187, No Iterations 6
Pressure gradient source: uncorrected Ubar = 1.00001, pressure gradient = -0.113385
GAMG:  Solving for p, Initial residual = 0.0206654, Final residual = 0.00189759, No Iterations 4
time step continuity errors : sum local = 1.82173e-06, global = -2.90537e-18, cumulative = 8.2602e-17
Pressure gradient source: uncorrected Ubar = 0.999997, pressure gradient = -0.11087
smoothSolver:  Solving for omega, Initial residual = 7.74186e-06, Final residual = 7.74186e-06, No Iterations 0
smoothSolver:  Solving for k, Initial residual = 0.00184243, Final residual = 0.000148372, No Iterations 6
ExecutionTime = 0.226809 s  ClockTime = 0 s

Time = 81s

smoothSolver:  Solving for Ux, Initial residual = 0.0022565, Final residual = 0.000209084, No Iterations 6
smoothSolver:  Solving for Uy, Initial residual = 0.0222552, Final residual = 0.00174875, No Iterations 6
Pressure gradient source: uncorrected Ubar = 1.00001, pressure gradient = -0.112669
GAMG:  Solving for p, Initial residual = 0.0184885, Final residual = 0.00177133, No Iterations 7
time step continuity errors : sum local = 1.629e-06, global = 1.06468e-17, cumulative = 9.32488e-17
Pressure gradient source: uncorrected Ubar = 0.999997, pressure gradient = -0.110132
smoothSolver:  Solving for omega, Initial residual = 7.73906e-06, Final residual = 7.73906e-06, No Iterations 0
smoothSolver:  Solving for k, Initial residual = 0.00179907, Final residual = 0.000144107, No Iterations 6
ExecutionTime = 0.229544 s  ClockTime = 0 s

Time = 82s

smoothSolver:  Solving for Ux, Initial residual = 0.00222143, Final residual = 0.000205593, No Iterations 6
smoothSolver:  Solving for Uy, Initial residual = 0.0216353, Final residual = 0.00170519, No Iterations 6
Pressure gradient source: uncorrected Ubar = 1.00001, pressure gradient = -0.112027
GAMG:  Solving for p, Initial residual = 0.0183829, Final residual = 0.00175896, No Iterations 6
time step continuity errors : sum local = 1.5634e-06, global = 1.85936e-18, cumulative = 9.51081e-17
Pressure gradient source: uncorrected Ubar = 0.999998, pressure gradient = -0.10943
smoothSolver:  Solving for omega, Initial residual = 7.73659e-06, Final residual = 7.73659e-06, No Iterations 0
smoothSolver:  Solving for k, Initial residual = 0.00175691, Final residual = 0.000142601, No Iterations 6
ExecutionTime = 0.232289 s  ClockTime = 0 s

Time = 83s

smoothSolver:  Solving for Ux, Initial residual = 0.00218648, Final residual = 0.000202126, No Iterations 6
smoothSolver:  Solving for Uy, Initial residual = 0.0215862, Final residual = 0.00167503, No Iterations 6
Pressure gradient source: uncorrected Ubar = 1.00001, pressure gradient = -0.111392
GAMG:  Solving for p, Initial residual = 0.019078, Final residual = 0.00175767, No Iterations 7
time step continuity errors : sum local = 1.49379e-06, global = 3.01507e-19, cumulative = 9.54096e-17
Pressure gradient source: uncorrected Ubar = 0.999998, pressure gradient = -0.10876
smoothSolver:  Solving for omega, Initial residual = 7.73425e-06, Final residual = 7.73425e-06, No Iterations 0
smoothSolver:  Solving for k, Initial residual = 0.00171936, Final residual = 0.000141826, No Iterations 6
ExecutionTime = 0.235065 s  ClockTime = 0 s

Time = 84s

smoothSolver:  Solving for Ux, Initial residual = 0.00215145, Final residual = 0.000198678, No Iterations 6
smoothSolver:  Solving for Uy, Initial residual = 0.0216158, Final residual = 0.00168904, No Iterations 6
Pressure gradient source: uncorrected Ubar = 1.00001, pressure gradient = -0.110782
GAMG:  Solving for p, Initial residual = 0.0188209, Final residual = 0.00176515, No Iterations 7
time step continuity errors : sum local = 1.42095e-06, global = -3.59064e-18, cumulative = 9.1819e-17
Pressure gradient source: uncorrected Ubar = 0.999998, pressure gradient = -0.10812
smoothSolver:  Solving for omega, Initial residual = 7.73196e-06, Final residual = 7.73196e-06, No Iterations 0
smoothSolver:  Solving for k, Initial residual = 0.00168118, Final residual = 0.000138, No Iterations 6
ExecutionTime = 0.237813 s  ClockTime = 0 s

Time = 85s

smoothSolver:  Solving for Ux, Initial residual = 0.00211633, Final residual = 0.000195256, No Iterations 6
smoothSolver:  Solving for Uy, Initial residual = 0.0224386, Final residual = 0.00173656, No Iterations 6
Pressure gradient source: uncorrected Ubar = 1.00001, pressure gradient = -0.110275
GAMG:  Solving for p, Initial residual = 0.0205933, Final residual = 0.00199443, No Iterations 7
time step continuity errors : sum local = 1.51677e-06, global = -4.06905e-18, cumulative = 8.775e-17
Pressure gradient source: uncorrected Ubar = 0.999998, pressure gradient = -0.10752
smoothSolver:  Solving for omega, Initial residual = 7.72977e-06, Final residual = 7.72977e-06, No Iterations 0
smoothSolver:  Solving for k, Initial residual = 0.00164459, Final residual = 0.000137383, No Iterations 6
ExecutionTime = 0.240589 s  ClockTime = 0 s

Time = 86s

smoothSolver:  Solving for Ux, Initial residual = 0.00208084, Final residual = 0.000191855, No Iterations 6
smoothSolver:  Solving for Uy, Initial residual = 0.0233894, Final residual = 0.00177293, No Iterations 6
Pressure gradient source: uncorrected Ubar = 1.00001, pressure gradient = -0.109761
GAMG:  Solving for p, Initial residual = 0.0214536, Final residual = 0.00197435, No Iterations 8
time step continuity errors : sum local = 1.42176e-06, global = 5.86221e-19, cumulative = 8.83362e-17
Pressure gradient source: uncorrected Ubar = 0.999998, pressure gradient = -0.106953
smoothSolver:  Solving for omega, Initial residual = 7.72763e-06, Final residual = 7.72763e-06, No Iterations 0
smoothSolver:  Solving for k, Initial residual = 0.00160671, Final residual = 0.000133464, No Iterations 6
ExecutionTime = 0.243444 s  ClockTime = 0 s

Time = 87s

smoothSolver:  Solving for Ux, Initial residual = 0.00204479, Final residual = 0.000188471, No Iterations 6
smoothSolver:  Solving for Uy, Initial residual = 0.0243748, Final residual = 0.00181421, No Iterations 6
Pressure gradient source: uncorrected Ubar = 1.00001, pressure gradient = -0.109379
GAMG:  Solving for p, Initial residual = 0.0240884, Final residual = 0.00234211, No Iterations 8
time step continuity errors : sum local = 1.57734e-06, global = -2.33326e-18, cumulative = 8.60029e-17
Pressure gradient source: uncorrected Ubar = 0.999998, pressure gradient = -0.106433
smoothSolver:  Solving for omega, Initial residual = 7.72559e-06, Final residual = 7.72559e-06, No Iterations 0
smoothSolver:  Solving for k, Initial residual = 0.00157108, Final residual = 0.000132307, No Iterations 6
ExecutionTime = 0.246237 s  ClockTime = 0 s

Time = 88s

smoothSolver:  Solving for Ux, Initial residual = 0.00201128, Final residual = 0.000185354, No Iterations 6
smoothSolver:  Solving for Uy, Initial residual = 0.0261099, Final residual = 0.00256312, No Iterations 5
Pressure gradient source: uncorrected Ubar = 1.00001, pressure gradient = -0.108517
GAMG:  Solving for p, Initial residual = 0.0306031, Final residual = 0.00251143, No Iterations 4
time step continuity errors : sum local = 1.58794e-06, global = 3.6566e-18, cumulative = 8.96595e-17
Pressure gradient source: uncorrected Ubar = 0.999998, pressure gradient = -0.105887
smoothSolver:  Solving for omega, Initial residual = 7.72367e-06, Final residual = 7.72367e-06, No Iterations 0
smoothSolver:  Solving for k, Initial residual = 0.00153803, Final residual = 0.000129528, No Iterations 6
ExecutionTime = 0.248851 s  ClockTime = 0 s

Time = 89s

smoothSolver:  Solving for Ux, Initial residual = 0.00198115, Final residual = 0.000182537, No Iterations 6
smoothSolver:  Solving for Uy, Initial residual = 0.0263402, Final residual = 0.00259986, No Iterations 5
Pressure gradient source: uncorrected Ubar = 1.00001, pressure gradient = -0.107537
GAMG:  Solving for p, Initial residual = 0.033498, Final residual = 0.00305679, No Iterations 9
[...]
smoothSolver:  Solving for omega, Initial residual = 7.57088e-06, Final residual = 7.57088e-06, No Iterations 0
smoothSolver:  Solving for k, Initial residual = 1.44095e-05, Final residual = 9.51487e-06, No Iterations 1
ExecutionTime = 11.8666 s  ClockTime = 12 s

Time = 4334s

smoothSolver:  Solving for Ux, Initial residual = 9.34756e-06, Final residual = 9.34756e-06, No Iterations 0
smoothSolver:  Solving for Uy, Initial residual = 0.000123044, Final residual = 9.09928e-06, No Iterations 6
Pressure gradient source: uncorrected Ubar = 1, pressure gradient = 0.0362939
GAMG:  Solving for p, Initial residual = 2.621e-05, Final residual = 2.29963e-06, No Iterations 10
time step continuity errors : sum local = 1.85877e-11, global = 5.59243e-18, cumulative = -3.14333e-16
Pressure gradient source: uncorrected Ubar = 1, pressure gradient = 0.0362938
smoothSolver:  Solving for omega, Initial residual = 7.57088e-06, Final residual = 7.57088e-06, No Iterations 0
smoothSolver:  Solving for k, Initial residual = 1.44055e-05, Final residual = 9.51222e-06, No Iterations 1
ExecutionTime = 11.8693 s  ClockTime = 12 s

Time = 4335s

smoothSolver:  Solving for Ux, Initial residual = 9.34423e-06, Final residual = 9.34423e-06, No Iterations 0
smoothSolver:  Solving for Uy, Initial residual = 0.000121469, Final residual = 9.01112e-06, No Iterations 6
Pressure gradient source: uncorrected Ubar = 1, pressure gradient = 0.0362938
GAMG:  Solving for p, Initial residual = 2.62036e-05, Final residual = 2.30824e-06, No Iterations 9
time step continuity errors : sum local = 1.8647e-11, global = -3.68357e-18, cumulative = -3.18016e-16
Pressure gradient source: uncorrected Ubar = 1, pressure gradient = 0.0362937
smoothSolver:  Solving for omega, Initial residual = 7.57088e-06, Final residual = 7.57088e-06, No Iterations 0
smoothSolver:  Solving for k, Initial residual = 1.44015e-05, Final residual = 9.50958e-06, No Iterations 1
ExecutionTime = 11.8719 s  ClockTime = 12 s

Time = 4336s

smoothSolver:  Solving for Ux, Initial residual = 9.3409e-06, Final residual = 9.3409e-06, No Iterations 0
smoothSolver:  Solving for Uy, Initial residual = 0.000120119, Final residual = 8.93685e-06, No Iterations 6
Pressure gradient source: uncorrected Ubar = 1, pressure gradient = 0.0362937
GAMG:  Solving for p, Initial residual = 2.59291e-05, Final residual = 2.27598e-06, No Iterations 9
time step continuity errors : sum local = 1.8385e-11, global = -3.58267e-18, cumulative = -3.21599e-16
Pressure gradient source: uncorrected Ubar = 1, pressure gradient = 0.0362936
smoothSolver:  Solving for omega, Initial residual = 7.57088e-06, Final residual = 7.57088e-06, No Iterations 0
smoothSolver:  Solving for k, Initial residual = 1.43975e-05, Final residual = 9.50694e-06, No Iterations 1
ExecutionTime = 11.8747 s  ClockTime = 12 s

Time = 4337s

smoothSolver:  Solving for Ux, Initial residual = 9.33758e-06, Final residual = 9.33758e-06, No Iterations 0
smoothSolver:  Solving for Uy, Initial residual = 0.000118684, Final residual = 8.85833e-06, No Iterations 6
Pressure gradient source: uncorrected Ubar = 1, pressure gradient = 0.0362936
GAMG:  Solving for p, Initial residual = 2.57427e-05, Final residual = 2.23717e-06, No Iterations 9
time step continuity errors : sum local = 1.80708e-11, global = -2.8636e-18, cumulative = -3.24463e-16
Pressure gradient source: uncorrected Ubar = 1, pressure gradient = 0.0362936
smoothSolver:  Solving for omega, Initial residual = 7.57088e-06, Final residual = 7.57088e-06, No Iterations 0
smoothSolver:  Solving for k, Initial residual = 1.43935e-05, Final residual = 9.5043e-06, No Iterations 1
ExecutionTime = 11.8773 s  ClockTime = 12 s

Time = 4338s

smoothSolver:  Solving for Ux, Initial residual = 9.33426e-06, Final residual = 9.33426e-06, No Iterations 0
smoothSolver:  Solving for Uy, Initial residual = 0.00011724, Final residual = 8.78029e-06, No Iterations 6
Pressure gradient source: uncorrected Ubar = 1, pressure gradient = 0.0362936
GAMG:  Solving for p, Initial residual = 2.56003e-05, Final residual = 2.54601e-06, No Iterations 8
time step continuity errors : sum local = 2.04156e-11, global = 2.64644e-18, cumulative = -3.21816e-16
Pressure gradient source: uncorrected Ubar = 1, pressure gradient = 0.0362935
smoothSolver:  Solving for omega, Initial residual = 7.57088e-06, Final residual = 7.57088e-06, No Iterations 0
smoothSolver:  Solving for k, Initial residual = 1.43895e-05, Final residual = 9.50166e-06, No Iterations 1
ExecutionTime = 11.8799 s  ClockTime = 12 s

Time = 4339s

smoothSolver:  Solving for Ux, Initial residual = 9.33093e-06, Final residual = 9.33093e-06, No Iterations 0
smoothSolver:  Solving for Uy, Initial residual = 0.000115814, Final residual = 8.70322e-06, No Iterations 6
Pressure gradient source: uncorrected Ubar = 1, pressure gradient = 0.0362935
GAMG:  Solving for p, Initial residual = 2.59093e-05, Final residual = 2.52692e-06, No Iterations 8
time step continuity errors : sum local = 2.0315e-11, global = 3.65566e-18, cumulative = -3.1816e-16
Pressure gradient source: uncorrected Ubar = 1, pressure gradient = 0.0362934
smoothSolver:  Solving for omega, Initial residual = 7.57088e-06, Final residual = 7.57088e-06, No Iterations 0
smoothSolver:  Solving for k, Initial residual = 1.43855e-05, Final residual = 9.49902e-06, No Iterations 1
ExecutionTime = 11.8826 s  ClockTime = 12 s

Time = 4340s

smoothSolver:  Solving for Ux, Initial residual = 9.32761e-06, Final residual = 9.32761e-06, No Iterations 0
smoothSolver:  Solving for Uy, Initial residual = 0.000114605, Final residual = 8.62667e-06, No Iterations 6
Pressure gradient source: uncorrected Ubar = 1, pressure gradient = 0.0362934
GAMG:  Solving for p, Initial residual = 2.59725e-05, Final residual = 2.49091e-06, No Iterations 8
time step continuity errors : sum local = 2.00614e-11, global = 3.10778e-18, cumulative = -3.15053e-16
Pressure gradient source: uncorrected Ubar = 1, pressure gradient = 0.0362933
smoothSolver:  Solving for omega, Initial residual = 7.57088e-06, Final residual = 7.57088e-06, No Iterations 0
smoothSolver:  Solving for k, Initial residual = 1.43815e-05, Final residual = 9.49638e-06, No Iterations 1
ExecutionTime = 11.8852 s  ClockTime = 12 s

Time = 4341s

smoothSolver:  Solving for Ux, Initial residual = 9.3243e-06, Final residual = 9.3243e-06, No Iterations 0
smoothSolver:  Solving for Uy, Initial residual = 0.000113479, Final residual = 8.55285e-06, No Iterations 6
Pressure gradient source: uncorrected Ubar = 1, pressure gradient = 0.0362933
GAMG:  Solving for p, Initial residual = 2.59478e-05, Final residual = 2.44195e-06, No Iterations 8
time step continuity errors : sum local = 1.96853e-11, global = -8.8631e-19, cumulative = -3.15939e-16
Pressure gradient source: uncorrected Ubar = 1, pressure gradient = 0.0362932
smoothSolver:  Solving for omega, Initial residual = 7.57088e-06, Final residual = 7.57088e-06, No Iterations 0
smoothSolver:  Solving for k, Initial residual = 1.43775e-05, Final residual = 9.49374e-06, No Iterations 1
ExecutionTime = 11.8878 s  ClockTime = 12 s

Time = 4342s

smoothSolver:  Solving for Ux, Initial residual = 9.32098e-06, Final residual = 9.32098e-06, No Iterations 0
smoothSolver:  Solving for Uy, Initial residual = 0.0001124, Final residual = 8.48081e-06, No Iterations 6
Pressure gradient source: uncorrected Ubar = 1, pressure gradient = 0.0362932
GAMG:  Solving for p, Initial residual = 2.58896e-05, Final residual = 2.38621e-06, No Iterations 8
time step continuity errors : sum local = 1.92445e-11, global = 2.20876e-18, cumulative = -3.1373e-16
Pressure gradient source: uncorrected Ubar = 1, pressure gradient = 0.0362931
smoothSolver:  Solving for omega, Initial residual = 7.57088e-06, Final residual = 7.57088e-06, No Iterations 0
smoothSolver:  Solving for k, Initial residual = 1.43735e-05, Final residual = 9.4911e-06, No Iterations 1
ExecutionTime = 11.8904 s  ClockTime = 12 s

Time = 4343s

smoothSolver:  Solving for Ux, Initial residual = 9.31767e-06, Final residual = 9.31767e-06, No Iterations 0
smoothSolver:  Solving for Uy, Initial residual = 0.00011136, Final residual = 8.40889e-06, No Iterations 6
Pressure gradient source: uncorrected Ubar = 1, pressure gradient = 0.0362931
GAMG:  Solving for p, Initial residual = 2.58087e-05, Final residual = 2.32868e-06, No Iterations 8
time step continuity errors : sum local = 1.87865e-11, global = 5.66312e-18, cumulative = -3.08067e-16
Pressure gradient source: uncorrected Ubar = 1, pressure gradient = 0.0362931
smoothSolver:  Solving for omega, Initial residual = 7.57088e-06, Final residual = 7.57088e-06, No Iterations 0
smoothSolver:  Solving for k, Initial residual = 1.43695e-05, Final residual = 9.48847e-06, No Iterations 1
ExecutionTime = 11.893 s  ClockTime = 12 s

Time = 4344s

smoothSolver:  Solving for Ux, Initial residual = 9.31435e-06, Final residual = 9.31435e-06, No Iterations 0
smoothSolver:  Solving for Uy, Initial residual = 0.000110351, Final residual = 8.33796e-06, No Iterations 6
Pressure gradient source: uncorrected Ubar = 1, pressure gradient = 0.0362931
GAMG:  Solving for p, Initial residual = 2.57152e-05, Final residual = 2.54699e-06, No Iterations 7
time step continuity errors : sum local = 2.05252e-11, global = 1.29286e-18, cumulative = -3.06774e-16
Pressure gradient source: uncorrected Ubar = 1, pressure gradient = 0.036293
smoothSolver:  Solving for omega, Initial residual = 7.57088e-06, Final residual = 7.57088e-06, No Iterations 0
smoothSolver:  Solving for k, Initial residual = 1.43655e-05, Final residual = 9.48583e-06, No Iterations 1
ExecutionTime = 11.8956 s  ClockTime = 12 s

Time = 4345s

smoothSolver:  Solving for Ux, Initial residual = 9.31104e-06, Final residual = 9.31104e-06, No Iterations 0
smoothSolver:  Solving for Uy, Initial residual = 0.000109471, Final residual = 8.27685e-06, No Iterations 6
Pressure gradient source: uncorrected Ubar = 1, pressure gradient = 0.036293
GAMG:  Solving for p, Initial residual = 2.54042e-05, Final residual = 2.44853e-06, No Iterations 8
time step continuity errors : sum local = 1.95547e-11, global = 3.97502e-18, cumulative = -3.02799e-16
Pressure gradient source: uncorrected Ubar = 1, pressure gradient = 0.0362929
smoothSolver:  Solving for omega, Initial residual = 7.57088e-06, Final residual = 7.57088e-06, No Iterations 0
smoothSolver:  Solving for k, Initial residual = 1.43615e-05, Final residual = 9.48319e-06, No Iterations 1
ExecutionTime = 11.8982 s  ClockTime = 12 s

Time = 4346s

smoothSolver:  Solving for Ux, Initial residual = 9.30774e-06, Final residual = 9.30774e-06, No Iterations 0
smoothSolver:  Solving for Uy, Initial residual = 0.000108482, Final residual = 8.19712e-06, No Iterations 6
Pressure gradient source: uncorrected Ubar = 1, pressure gradient = 0.0362929
GAMG:  Solving for p, Initial residual = 2.54554e-05, Final residual = 2.46079e-06, No Iterations 7
time step continuity errors : sum local = 1.98077e-11, global = -2.40419e-18, cumulative = -3.05203e-16
Pressure gradient source: uncorrected Ubar = 1, pressure gradient = 0.0362928
smoothSolver:  Solving for omega, Initial residual = 7.57088e-06, Final residual = 7.57088e-06, No Iterations 0
smoothSolver:  Solving for k, Initial residual = 1.43575e-05, Final residual = 9.48056e-06, No Iterations 1
ExecutionTime = 11.9007 s  ClockTime = 12 s

Time = 4347s

smoothSolver:  Solving for Ux, Initial residual = 9.30443e-06, Final residual = 9.30443e-06, No Iterations 0
smoothSolver:  Solving for Uy, Initial residual = 0.000107529, Final residual = 8.13675e-06, No Iterations 6
Pressure gradient source: uncorrected Ubar = 1, pressure gradient = 0.0362928
GAMG:  Solving for p, Initial residual = 2.51623e-05, Final residual = 2.48107e-06, No Iterations 7
time step continuity errors : sum local = 2.0022e-11, global = 7.26139e-19, cumulative = -3.04477e-16
Pressure gradient source: uncorrected Ubar = 1, pressure gradient = 0.0362927
smoothSolver:  Solving for omega, Initial residual = 7.57088e-06, Final residual = 7.57088e-06, No Iterations 0
smoothSolver:  Solving for k, Initial residual = 1.43536e-05, Final residual = 9.47792e-06, No Iterations 1
ExecutionTime = 11.9033 s  ClockTime = 12 s

Time = 4348s

smoothSolver:  Solving for Ux, Initial residual = 9.30112e-06, Final residual = 9.30112e-06, No Iterations 0
smoothSolver:  Solving for Uy, Initial residual = 0.000106578, Final residual = 8.0684e-06, No Iterations 6
Pressure gradient source: uncorrected Ubar = 1, pressure gradient = 0.0362927
GAMG:  Solving for p, Initial residual = 2.50016e-05, Final residual = 2.47707e-06, No Iterations 7
time step continuity errors : sum local = 2.00233e-11, global = -3.12361e-18, cumulative = -3.07601e-16
Pressure gradient source: uncorrected Ubar = 1, pressure gradient = 0.0362926
smoothSolver:  Solving for omega, Initial residual = 7.57088e-06, Final residual = 7.57088e-06, No Iterations 0
smoothSolver:  Solving for k, Initial residual = 1.43496e-05, Final residual = 9.47529e-06, No Iterations 1
ExecutionTime = 11.9058 s  ClockTime = 12 s

Time = 4349s

smoothSolver:  Solving for Ux, Initial residual = 9.29782e-06, Final residual = 9.29782e-06, No Iterations 0
smoothSolver:  Solving for Uy, Initial residual = 0.000105653, Final residual = 8.00042e-06, No Iterations 6
Pressure gradient source: uncorrected Ubar = 1, pressure gradient = 0.0362926
GAMG:  Solving for p, Initial residual = 2.48719e-05, Final residual = 2.44977e-06, No Iterations 7
time step continuity errors : sum local = 1.98163e-11, global = -3.53196e-18, cumulative = -3.11133e-16
Pressure gradient source: uncorrected Ubar = 1, pressure gradient = 0.0362926
smoothSolver:  Solving for omega, Initial residual = 7.57088e-06, Final residual = 7.57088e-06, No Iterations 0
smoothSolver:  Solving for k, Initial residual = 1.43456e-05, Final residual = 9.47266e-06, No Iterations 1
ExecutionTime = 11.9084 s  ClockTime = 12 s

Time = 4350s

smoothSolver:  Solving for Ux, Initial residual = 9.29452e-06, Final residual = 9.29452e-06, No Iterations 0
smoothSolver:  Solving for Uy, Initial residual = 0.00010473, Final residual = 7.933e-06, No Iterations 6
Pressure gradient source: uncorrected Ubar = 1, pressure gradient = 0.0362926
GAMG:  Solving for p, Initial residual = 2.47559e-05, Final residual = 2.40532e-06, No Iterations 7
time step continuity errors : sum local = 1.94582e-11, global = -1.91611e-18, cumulative = -3.13049e-16
Pressure gradient source: uncorrected Ubar = 1, pressure gradient = 0.0362925
smoothSolver:  Solving for omega, Initial residual = 7.57088e-06, Final residual = 7.57088e-06, No Iterations 0
smoothSolver:  Solving for k, Initial residual = 1.43416e-05, Final residual = 9.47002e-06, No Iterations 1
ExecutionTime = 11.9109 s  ClockTime = 12 s

Time = 4351s

smoothSolver:  Solving for Ux, Initial residual = 9.29122e-06, Final residual = 9.29122e-06, No Iterations 0
smoothSolver:  Solving for Uy, Initial residual = 0.000103844, Final residual = 7.86614e-06, No Iterations 6
Pressure gradient source: uncorrected Ubar = 1, pressure gradient = 0.0362925
GAMG:  Solving for p, Initial residual = 2.46455e-05, Final residual = 2.35074e-06, No Iterations 7
time step continuity errors : sum local = 1.90155e-11, global = -1.17136e-18, cumulative = -3.1422e-16
Pressure gradient source: uncorrected Ubar = 1, pressure gradient = 0.0362924
smoothSolver:  Solving for omega, Initial residual = 7.57088e-06, Final residual = 7.57088e-06, No Iterations 0
smoothSolver:  Solving for k, Initial residual = 1.43376e-05, Final residual = 9.46739e-06, No Iterations 1
ExecutionTime = 11.9135 s  ClockTime = 12 s

Time = 4352s

smoothSolver:  Solving for Ux, Initial residual = 9.28793e-06, Final residual = 9.28793e-06, No Iterations 0
smoothSolver:  Solving for Uy, Initial residual = 0.000102976, Final residual = 7.80136e-06, No Iterations 6
Pressure gradient source: uncorrected Ubar = 1, pressure gradient = 0.0362924
GAMG:  Solving for p, Initial residual = 2.45377e-05, Final residual = 2.29171e-06, No Iterations 7
time step continuity errors : sum local = 1.85399e-11, global = 2.89834e-18, cumulative = -3.11322e-16
Pressure gradient source: uncorrected Ubar = 1, pressure gradient = 0.0362923
smoothSolver:  Solving for omega, Initial residual = 7.57088e-06, Final residual = 7.57088e-06, No Iterations 0
smoothSolver:  Solving for k, Initial residual = 1.43336e-05, Final residual = 9.46476e-06, No Iterations 1
ExecutionTime = 11.9161 s  ClockTime = 12 s

Time = 4353s

smoothSolver:  Solving for Ux, Initial residual = 9.28463e-06, Final residual = 9.28463e-06, No Iterations 0
smoothSolver:  Solving for Uy, Initial residual = 0.000102123, Final residual = 7.73699e-06, No Iterations 6
Pressure gradient source: uncorrected Ubar = 1, pressure gradient = 0.0362923
GAMG:  Solving for p, Initial residual = 2.44306e-05, Final residual = 2.23165e-06, No Iterations 7
time step continuity errors : sum local = 1.80613e-11, global = -5.27259e-18, cumulative = -3.16595e-16
Pressure gradient source: uncorrected Ubar = 1, pressure gradient = 0.0362922
smoothSolver:  Solving for omega, Initial residual = 7.57088e-06, Final residual = 7.57088e-06, No Iterations 0
smoothSolver:  Solving for k, Initial residual = 1.43296e-05, Final residual = 9.46213e-06, No Iterations 1
ExecutionTime = 11.9187 s  ClockTime = 12 s

Time = 4354s

smoothSolver:  Solving for Ux, Initial residual = 9.28134e-06, Final residual = 9.28134e-06, No Iterations 0
smoothSolver:  Solving for Uy, Initial residual = 0.000101298, Final residual = 7.67425e-06, No Iterations 6
Pressure gradient source: uncorrected Ubar = 1, pressure gradient = 0.0362922
GAMG:  Solving for p, Initial residual = 2.43268e-05, Final residual = 2.17214e-06, No Iterations 7
time step continuity errors : sum local = 1.75917e-11, global = 6.05338e-18, cumulative = -3.10541e-16
Pressure gradient source: uncorrected Ubar = 1, pressure gradient = 0.0362922
smoothSolver:  Solving for omega, Initial residual = 7.57088e-06, Final residual = 7.57088e-06, No Iterations 0
smoothSolver:  Solving for k, Initial residual = 1.43257e-05, Final residual = 9.4595e-06, No Iterations 1
ExecutionTime = 11.9212 s  ClockTime = 12 s

Time = 4355s

smoothSolver:  Solving for Ux, Initial residual = 9.27805e-06, Final residual = 9.27805e-06, No Iterations 0
smoothSolver:  Solving for Uy, Initial residual = 0.000100473, Final residual = 7.61246e-06, No Iterations 6
Pressure gradient source: uncorrected Ubar = 1, pressure gradient = 0.0362922
GAMG:  Solving for p, Initial residual = 2.42263e-05, Final residual = 2.11358e-06, No Iterations 7
time step continuity errors : sum local = 1.71325e-11, global = -1.10203e-17, cumulative = -3.21561e-16
Pressure gradient source: uncorrected Ubar = 1, pressure gradient = 0.0362921
smoothSolver:  Solving for omega, Initial residual = 7.57088e-06, Final residual = 7.57088e-06, No Iterations 0
smoothSolver:  Solving for k, Initial residual = 1.43217e-05, Final residual = 9.45687e-06, No Iterations 1
ExecutionTime = 11.9238 s  ClockTime = 12 s

Time = 4356s

smoothSolver:  Solving for Ux, Initial residual = 9.27476e-06, Final residual = 9.27476e-06, No Iterations 0
smoothSolver:  Solving for Uy, Initial residual = 9.96803e-05, Final residual = 7.55093e-06, No Iterations 6
Pressure gradient source: uncorrected Ubar = 1, pressure gradient = 0.0362921
GAMG:  Solving for p, Initial residual = 2.41263e-05, Final residual = 2.0559e-06, No Iterations 7
time step continuity errors : sum local = 1.66812e-11, global = 5.96627e-19, cumulative = -3.20965e-16
Pressure gradient source: uncorrected Ubar = 1, pressure gradient = 0.036292
smoothSolver:  Solving for omega, Initial residual = 7.57088e-06, Final residual = 7.57088e-06, No Iterations 0
smoothSolver:  Solving for k, Initial residual = 1.43177e-05, Final residual = 9.45424e-06, No Iterations 1
ExecutionTime = 11.9263 s  ClockTime = 12 s


SIMPLE solution converged in 4356 iterations

End

