/*---------------------------------------------------------------------------*\
  =========                 |
  \\      /  F ield         | OpenFOAM: The Open Source CFD Toolbox
   \\    /   O peration     | Website:  https://openfoam.org
    \\  /    A nd           | Version:  10
     \\/     M anipulation  |
\*---------------------------------------------------------------------------*/
Build  : 10-e450dce21ea5
Exec   : blockMesh
Date   : Jan 16 2023
Time   : 11:43:49
Host   : "w530-R9YK46P"
PID    : 14409
I/O    : uncollated
Case   : /home/jdmezazeron/gitDanielMezaZ/turbulenceVisualized/Data/SimulationFiles/E22_Re8732
nProcs : 1
sigFpe : Enabling floating point exception trapping (FOAM_SIGFPE).
fileModificationChecking : Monitoring run-time modified files using timeStampMaster (fileModificationSkew 10)
allowSystemOperations : Allowing user-supplied system call operations

// * * * * * * * * * * * * * * * * * * * * * * * * * * * * * * * * * * * * * //
Create time

Reading "blockMeshDict"

Creating block mesh from
    "system/blockMeshDict"
Creating block edges
No non-planar block faces defined
Creating topology blocks
Creating topology patches

Creating block mesh topology

Check topology

	Basic statistics
		Number of internal faces : 0
		Number of boundary faces : 6
		Number of defined boundary faces : 6
		Number of undefined boundary faces : 0
	Checking patch -> block consistency

Creating block offsets
Creating merge list .

Creating polyMesh from blockMesh
Creating patches
Creating cells
Creating points with scale 1
    Block 0 cell size :
        i : 0.5
        j : 0.00921276 .. 0.036851
        k : 2

Detected cyclic patches; ordering boundary faces

Writing polyMesh
----------------
Mesh Information
----------------
  boundingBox: (-1 0 -1) (1 1 1)
  nPoints: 510
  nCells: 200
  nFaces: 854
  nInternalFaces: 346
----------------
Patches
----------------
  patch 0 (start: 346 size: 50) name: inlet
  patch 1 (start: 396 size: 50) name: outlet
  patch 2 (start: 446 size: 4) name: fixedWalls-bottom
  patch 3 (start: 450 size: 4) name: fixedWalls-top
  patch 4 (start: 454 size: 400) name: frontAndBack

End

/*---------------------------------------------------------------------------*\
  =========                 |
  \\      /  F ield         | OpenFOAM: The Open Source CFD Toolbox
   \\    /   O peration     | Website:  https://openfoam.org
    \\  /    A nd           | Version:  10
     \\/     M anipulation  |
\*---------------------------------------------------------------------------*/
Build  : 10-e450dce21ea5
Exec   : simpleFoam
Date   : Jan 16 2023
Time   : 11:43:49
Host   : "w530-R9YK46P"
PID    : 14410
I/O    : uncollated
Case   : /home/jdmezazeron/gitDanielMezaZ/turbulenceVisualized/Data/SimulationFiles/E22_Re8732
nProcs : 1
sigFpe : Enabling floating point exception trapping (FOAM_SIGFPE).
fileModificationChecking : Monitoring run-time modified files using timeStampMaster (fileModificationSkew 10)
allowSystemOperations : Allowing user-supplied system call operations

// * * * * * * * * * * * * * * * * * * * * * * * * * * * * * * * * * * * * * //
Create time

Create mesh for time = 0


SIMPLE: Convergence criteria found
        U: tolerance 0.01
        p: tolerance 0.01
        omega: tolerance 0.0001

Reading field p

Reading field U

Reading/calculating face flux field phi

Selecting viscosity model Newtonian
Selecting turbulence model type RAS
Selecting RAS turbulence model kOmegaSST
Selecting patchDistMethod meshWave
RAS
{
    RASModel        kOmegaSST;
    turbulence      on;
    printCoeffs     on;
    alphaK1         0.85;
    alphaK2         1;
    alphaOmega1     0.5;
    alphaOmega2     0.856;
    gamma1          0.555556;
    gamma2          0.44;
    beta1           0.075;
    beta2           0.0828;
    betaStar        0.09;
    a1              0.31;
    b1              1;
    c1              10;
    F3              false;
}

No MRF models present

--> FOAM Warning : Creating fvModels from "system/fvOptions" rather than constant/fvModels
No fvModels present
--> FOAM Warning : Creating fvConstraints from "system/fvOptions"

Selecting finite volume constraint type meanVelocityForce
    Name: momentumSource
    - selecting all cells
    - selected 200 cell(s) with volume 4
    Initial pressure gradient = 0


Starting time loop

turbulenceFields stressComponents: storing fields:
    R

Time = 1s

smoothSolver:  Solving for Ux, Initial residual = 0, Final residual = 0, No Iterations 0
smoothSolver:  Solving for Uy, Initial residual = 0, Final residual = 0, No Iterations 0
Pressure gradient source: uncorrected Ubar = 0, pressure gradient = 1.59179
GAMG:  Solving for p, Initial residual = 0.999986, Final residual = 0.0372475, No Iterations 3
time step continuity errors : sum local = 5.28453e-17, global = 1.96265e-18, cumulative = 1.96265e-18
Pressure gradient source: uncorrected Ubar = 0.869387, pressure gradient = 0.207908
smoothSolver:  Solving for omega, Initial residual = 0.286126, Final residual = 0.0215003, No Iterations 1
bounding omega, min: -11.7322 max: 863.389 average: 36.5562
smoothSolver:  Solving for k, Initial residual = 1, Final residual = 0.0394998, No Iterations 2
ExecutionTime = 0.012463 s  ClockTime = 0 s

Time = 2s

smoothSolver:  Solving for Ux, Initial residual = 0.152773, Final residual = 0.0126416, No Iterations 5
smoothSolver:  Solving for Uy, Initial residual = 1, Final residual = 0.0874255, No Iterations 2
Pressure gradient source: uncorrected Ubar = 1.17264, pressure gradient = -0.963679
GAMG:  Solving for p, Initial residual = 1, Final residual = 0.0941226, No Iterations 6
time step continuity errors : sum local = 0.0069512, global = 4.01155e-18, cumulative = 5.97419e-18
Pressure gradient source: uncorrected Ubar = 1.03968, pressure gradient = -0.0613554
smoothSolver:  Solving for omega, Initial residual = 0.0456227, Final residual = 0.00435636, No Iterations 1
smoothSolver:  Solving for k, Initial residual = 0.264588, Final residual = 0.0181289, No Iterations 3
ExecutionTime = 0.014695 s  ClockTime = 0 s

Time = 3s

smoothSolver:  Solving for Ux, Initial residual = 0.167814, Final residual = 0.0163503, No Iterations 4
smoothSolver:  Solving for Uy, Initial residual = 0.605786, Final residual = 0.0597727, No Iterations 2
Pressure gradient source: uncorrected Ubar = 0.940987, pressure gradient = 0.487287
GAMG:  Solving for p, Initial residual = 0.136984, Final residual = 0.0133868, No Iterations 5
time step continuity errors : sum local = 0.00311264, global = -6.50606e-18, cumulative = -5.31866e-19
Pressure gradient source: uncorrected Ubar = 0.991283, pressure gradient = 0.0196842
smoothSolver:  Solving for omega, Initial residual = 0.0120606, Final residual = 0.0006107, No Iterations 2
smoothSolver:  Solving for k, Initial residual = 0.169537, Final residual = 0.00934129, No Iterations 2
ExecutionTime = 0.016769 s  ClockTime = 0 s

Time = 4s

smoothSolver:  Solving for Ux, Initial residual = 0.0788927, Final residual = 0.00617891, No Iterations 4
smoothSolver:  Solving for Uy, Initial residual = 0.479583, Final residual = 0.0292881, No Iterations 3
Pressure gradient source: uncorrected Ubar = 1.00397, pressure gradient = -0.0198382
GAMG:  Solving for p, Initial residual = 0.0497058, Final residual = 0.00411682, No Iterations 11
time step continuity errors : sum local = 0.00148792, global = 2.35475e-18, cumulative = 1.82289e-18
Pressure gradient source: uncorrected Ubar = 1.00052, pressure gradient = 0.0145288
smoothSolver:  Solving for omega, Initial residual = 0.0070711, Final residual = 0.000335471, No Iterations 2
smoothSolver:  Solving for k, Initial residual = 0.0902112, Final residual = 0.00832882, No Iterations 2
ExecutionTime = 0.018991 s  ClockTime = 0 s

Time = 5s

smoothSolver:  Solving for Ux, Initial residual = 0.047052, Final residual = 0.00315875, No Iterations 5
smoothSolver:  Solving for Uy, Initial residual = 0.550147, Final residual = 0.0287516, No Iterations 3
Pressure gradient source: uncorrected Ubar = 1.00145, pressure gradient = -0.00131879
GAMG:  Solving for p, Initial residual = 0.0788933, Final residual = 0.00717064, No Iterations 7
time step continuity errors : sum local = 0.00119581, global = -8.8769e-19, cumulative = 9.35196e-19
Pressure gradient source: uncorrected Ubar = 1.00019, pressure gradient = 0.0124029
smoothSolver:  Solving for omega, Initial residual = 0.00319818, Final residual = 0.000185824, No Iterations 2
smoothSolver:  Solving for k, Initial residual = 0.0740428, Final residual = 0.00633232, No Iterations 3
ExecutionTime = 0.021199 s  ClockTime = 0 s

Time = 6s

smoothSolver:  Solving for Ux, Initial residual = 0.0329024, Final residual = 0.00258794, No Iterations 5
smoothSolver:  Solving for Uy, Initial residual = 0.467384, Final residual = 0.0290893, No Iterations 3
Pressure gradient source: uncorrected Ubar = 1.00181, pressure gradient = -0.00862605
GAMG:  Solving for p, Initial residual = 0.145368, Final residual = 0.0118384, No Iterations 15
time step continuity errors : sum local = 0.000702273, global = -4.92634e-18, cumulative = -3.99115e-18
Pressure gradient source: uncorrected Ubar = 1.00025, pressure gradient = 0.00950369
smoothSolver:  Solving for omega, Initial residual = 0.00214652, Final residual = 0.000210751, No Iterations 2
smoothSolver:  Solving for k, Initial residual = 0.0607629, Final residual = 0.00310924, No Iterations 4
ExecutionTime = 0.023619 s  ClockTime = 0 s

Time = 7s

smoothSolver:  Solving for Ux, Initial residual = 0.0250774, Final residual = 0.00213206, No Iterations 5
smoothSolver:  Solving for Uy, Initial residual = 0.507551, Final residual = 0.0295823, No Iterations 3
Pressure gradient source: uncorrected Ubar = 1.00126, pressure gradient = -0.00577439
GAMG:  Solving for p, Initial residual = 0.0795046, Final residual = 0.00612263, No Iterations 14
time step continuity errors : sum local = 0.000410392, global = -8.9705e-18, cumulative = -1.29617e-17
Pressure gradient source: uncorrected Ubar = 1.00017, pressure gradient = 0.00744421
smoothSolver:  Solving for omega, Initial residual = 0.00132534, Final residual = 8.0869e-05, No Iterations 3
smoothSolver:  Solving for k, Initial residual = 0.0555365, Final residual = 0.0045215, No Iterations 4
ExecutionTime = 0.026512 s  ClockTime = 0 s

Time = 8s

smoothSolver:  Solving for Ux, Initial residual = 0.0203322, Final residual = 0.00183348, No Iterations 5
smoothSolver:  Solving for Uy, Initial residual = 0.523152, Final residual = 0.0294124, No Iterations 3
Pressure gradient source: uncorrected Ubar = 1.00116, pressure gradient = -0.00720196
GAMG:  Solving for p, Initial residual = 0.0475806, Final residual = 0.00269435, No Iterations 4
time step continuity errors : sum local = 0.000246251, global = 3.27971e-18, cumulative = -9.68194e-18
Pressure gradient source: uncorrected Ubar = 1.00015, pressure gradient = 0.00551044
smoothSolver:  Solving for omega, Initial residual = 0.000901371, Final residual = 7.07787e-05, No Iterations 3
smoothSolver:  Solving for k, Initial residual = 0.050759, Final residual = 0.00309047, No Iterations 5
ExecutionTime = 0.028862 s  ClockTime = 0 s

Time = 9s

smoothSolver:  Solving for Ux, Initial residual = 0.0164183, Final residual = 0.00158873, No Iterations 5
smoothSolver:  Solving for Uy, Initial residual = 0.499404, Final residual = 0.0304505, No Iterations 3
Pressure gradient source: uncorrected Ubar = 1.00073, pressure gradient = -0.00404122
GAMG:  Solving for p, Initial residual = 0.036394, Final residual = 0.00237948, No Iterations 9
time step continuity errors : sum local = 0.000232253, global = 2.95742e-18, cumulative = -6.72452e-18
Pressure gradient source: uncorrected Ubar = 1.00009, pressure gradient = 0.00427552
smoothSolver:  Solving for omega, Initial residual = 0.000638239, Final residual = 5.13271e-05, No Iterations 3
smoothSolver:  Solving for k, Initial residual = 0.0468281, Final residual = 0.0043788, No Iterations 4
ExecutionTime = 0.031101 s  ClockTime = 0 s

Time = 10s

smoothSolver:  Solving for Ux, Initial residual = 0.0138604, Final residual = 0.000949514, No Iterations 6
smoothSolver:  Solving for Uy, Initial residual = 0.543507, Final residual = 0.0322421, No Iterations 3
Pressure gradient source: uncorrected Ubar = 1.00049, pressure gradient = -0.00237384
GAMG:  Solving for p, Initial residual = 0.0348071, Final residual = 0.00317948, No Iterations 12
time step continuity errors : sum local = 0.000256055, global = -2.4259e-18, cumulative = -9.15043e-18
Pressure gradient source: uncorrected Ubar = 1.00006, pressure gradient = 0.00344661
smoothSolver:  Solving for omega, Initial residual = 0.00049001, Final residual = 2.72856e-05, No Iterations 4
smoothSolver:  Solving for k, Initial residual = 0.041279, Final residual = 0.00374423, No Iterations 4
ExecutionTime = 0.033404 s  ClockTime = 0 s

Time = 11s

smoothSolver:  Solving for Ux, Initial residual = 0.011935, Final residual = 0.000864388, No Iterations 6
smoothSolver:  Solving for Uy, Initial residual = 0.539421, Final residual = 0.0313126, No Iterations 3
Pressure gradient source: uncorrected Ubar = 1.00038, pressure gradient = -0.00190905
GAMG:  Solving for p, Initial residual = 0.0387133, Final residual = 0.00356039, No Iterations 10
time step continuity errors : sum local = 0.000272154, global = 6.71909e-19, cumulative = -8.47852e-18
Pressure gradient source: uncorrected Ubar = 1.00005, pressure gradient = 0.00277052
smoothSolver:  Solving for omega, Initial residual = 0.000408834, Final residual = 3.50102e-05, No Iterations 4
smoothSolver:  Solving for k, Initial residual = 0.036833, Final residual = 0.00243018, No Iterations 5
ExecutionTime = 0.035682 s  ClockTime = 0 s

Time = 12s

smoothSolver:  Solving for Ux, Initial residual = 0.0105538, Final residual = 0.000808543, No Iterations 6
smoothSolver:  Solving for Uy, Initial residual = 0.484478, Final residual = 0.0334805, No Iterations 3
Pressure gradient source: uncorrected Ubar = 1.00029, pressure gradient = -0.00136638
GAMG:  Solving for p, Initial residual = 0.0469155, Final residual = 0.00317717, No Iterations 12
time step continuity errors : sum local = 0.00016813, global = 2.36153e-18, cumulative = -6.11699e-18
Pressure gradient source: uncorrected Ubar = 1.00004, pressure gradient = 0.00224121
smoothSolver:  Solving for omega, Initial residual = 0.000310712, Final residual = 2.77961e-05, No Iterations 4
smoothSolver:  Solving for k, Initial residual = 0.0347973, Final residual = 0.00263617, No Iterations 5
ExecutionTime = 0.038023 s  ClockTime = 0 s

Time = 13s

smoothSolver:  Solving for Ux, Initial residual = 0.00949672, Final residual = 0.000763759, No Iterations 6
smoothSolver:  Solving for Uy, Initial residual = 0.386712, Final residual = 0.0272564, No Iterations 3
Pressure gradient source: uncorrected Ubar = 1.00016, pressure gradient = -0.000165631
GAMG:  Solving for p, Initial residual = 0.0646481, Final residual = 0.0046645, No Iterations 13
time step continuity errors : sum local = 0.0001154, global = -4.33427e-18, cumulative = -1.04513e-17
Pressure gradient source: uncorrected Ubar = 1.00002, pressure gradient = 0.00194532
smoothSolver:  Solving for omega, Initial residual = 0.000231332, Final residual = 1.51041e-05, No Iterations 5
smoothSolver:  Solving for k, Initial residual = 0.0300544, Final residual = 0.00206026, No Iterations 5
ExecutionTime = 0.040462 s  ClockTime = 0 s

Time = 14s

smoothSolver:  Solving for Ux, Initial residual = 0.00861034, Final residual = 0.000717853, No Iterations 6
smoothSolver:  Solving for Uy, Initial residual = 0.381312, Final residual = 0.024209, No Iterations 3
Pressure gradient source: uncorrected Ubar = 1.00013, pressure gradient = -3.52932e-05
GAMG:  Solving for p, Initial residual = 0.06869, Final residual = 0.00488707, No Iterations 9
time step continuity errors : sum local = 7.80891e-05, global = -3.36627e-18, cumulative = -1.38175e-17
Pressure gradient source: uncorrected Ubar = 1.00002, pressure gradient = 0.00169191
smoothSolver:  Solving for omega, Initial residual = 0.000174349, Final residual = 1.16581e-05, No Iterations 5
smoothSolver:  Solving for k, Initial residual = 0.0253488, Final residual = 0.00148183, No Iterations 5
ExecutionTime = 0.042719 s  ClockTime = 0 s

Time = 15s

smoothSolver:  Solving for Ux, Initial residual = 0.00789246, Final residual = 0.00068037, No Iterations 6
smoothSolver:  Solving for Uy, Initial residual = 0.411011, Final residual = 0.0320583, No Iterations 3
Pressure gradient source: uncorrected Ubar = 1.00011, pressure gradient = -9.80855e-05
GAMG:  Solving for p, Initial residual = 0.0398492, Final residual = 0.00289614, No Iterations 9
time step continuity errors : sum local = 5.89326e-05, global = 5.63075e-19, cumulative = -1.32545e-17
Pressure gradient source: uncorrected Ubar = 1.00001, pressure gradient = 0.00145916
smoothSolver:  Solving for omega, Initial residual = 0.000156482, Final residual = 9.58618e-06, No Iterations 5
smoothSolver:  Solving for k, Initial residual = 0.0213274, Final residual = 0.00152472, No Iterations 5
ExecutionTime = 0.045248 s  ClockTime = 0 s

Time = 16s

smoothSolver:  Solving for Ux, Initial residual = 0.00748615, Final residual = 0.000657211, No Iterations 6
smoothSolver:  Solving for Uy, Initial residual = 0.502607, Final residual = 0.0406944, No Iterations 3
Pressure gradient source: uncorrected Ubar = 1.00007, pressure gradient = 0.000293386
GAMG:  Solving for p, Initial residual = 0.0365557, Final residual = 0.00355681, No Iterations 7
time step continuity errors : sum local = 6.7429e-05, global = -8.17945e-18, cumulative = -2.14339e-17
Pressure gradient source: uncorrected Ubar = 1.00001, pressure gradient = 0.00130942
smoothSolver:  Solving for omega, Initial residual = 0.000124784, Final residual = 8.76319e-06, No Iterations 5
smoothSolver:  Solving for k, Initial residual = 0.0193275, Final residual = 0.00138039, No Iterations 5
ExecutionTime = 0.047631 s  ClockTime = 0 s

Time = 17s

smoothSolver:  Solving for Ux, Initial residual = 0.00736354, Final residual = 0.000636416, No Iterations 6
smoothSolver:  Solving for Uy, Initial residual = 0.565075, Final residual = 0.0377666, No Iterations 3
Pressure gradient source: uncorrected Ubar = 1.00004, pressure gradient = 0.000557675
GAMG:  Solving for p, Initial residual = 0.0398877, Final residual = 0.00381974, No Iterations 9
time step continuity errors : sum local = 6.34703e-05, global = 1.981e-19, cumulative = -2.12358e-17
Pressure gradient source: uncorrected Ubar = 1.00001, pressure gradient = 0.00121394
smoothSolver:  Solving for omega, Initial residual = 0.000119799, Final residual = 1.09562e-05, No Iterations 4
smoothSolver:  Solving for k, Initial residual = 0.0171736, Final residual = 0.00117871, No Iterations 5
ExecutionTime = 0.050356 s  ClockTime = 0 s

Time = 18s

smoothSolver:  Solving for Ux, Initial residual = 0.00726048, Final residual = 0.00061719, No Iterations 6
smoothSolver:  Solving for Uy, Initial residual = 0.515046, Final residual = 0.0360339, No Iterations 3
Pressure gradient source: uncorrected Ubar = 1.00003, pressure gradient = 0.000728476
GAMG:  Solving for p, Initial residual = 0.0441622, Final residual = 0.00405806, No Iterations 11
time step continuity errors : sum local = 5.05926e-05, global = -4.44217e-18, cumulative = -2.5678e-17
Pressure gradient source: uncorrected Ubar = 1, pressure gradient = 0.00115431
smoothSolver:  Solving for omega, Initial residual = 0.000106593, Final residual = 6.50625e-06, No Iterations 5
smoothSolver:  Solving for k, Initial residual = 0.015105, Final residual = 0.00106548, No Iterations 5
ExecutionTime = 0.053294 s  ClockTime = 0 s

Time = 19s

smoothSolver:  Solving for Ux, Initial residual = 0.00722822, Final residual = 0.000605729, No Iterations 6
smoothSolver:  Solving for Uy, Initial residual = 0.425446, Final residual = 0.029371, No Iterations 3
Pressure gradient source: uncorrected Ubar = 1, pressure gradient = 0.00114183
GAMG:  Solving for p, Initial residual = 0.0456635, Final residual = 0.00356909, No Iterations 13
time step continuity errors : sum local = 3.82412e-05, global = 2.54793e-18, cumulative = -2.31301e-17
Pressure gradient source: uncorrected Ubar = 1, pressure gradient = 0.00116014
smoothSolver:  Solving for omega, Initial residual = 0.000105281, Final residual = 6.47404e-06, No Iterations 5
smoothSolver:  Solving for k, Initial residual = 0.0135112, Final residual = 0.000947743, No Iterations 5
ExecutionTime = 0.055876 s  ClockTime = 0 s

Time = 20s

smoothSolver:  Solving for Ux, Initial residual = 0.00715831, Final residual = 0.000592469, No Iterations 6
smoothSolver:  Solving for Uy, Initial residual = 0.408936, Final residual = 0.0218925, No Iterations 3
Pressure gradient source: uncorrected Ubar = 0.999998, pressure gradient = 0.00118812
GAMG:  Solving for p, Initial residual = 0.0456967, Final residual = 0.00416568, No Iterations 11
time step continuity errors : sum local = 4.01534e-05, global = 3.95543e-18, cumulative = -1.91746e-17
Pressure gradient source: uncorrected Ubar = 0.999999, pressure gradient = 0.00116983
smoothSolver:  Solving for omega, Initial residual = 9.48775e-05, Final residual = 9.51959e-06, No Iterations 4
smoothSolver:  Solving for k, Initial residual = 0.0121976, Final residual = 0.000823721, No Iterations 5
ExecutionTime = 0.058357 s  ClockTime = 0 s

Time = 21s

smoothSolver:  Solving for Ux, Initial residual = 0.00707608, Final residual = 0.000577894, No Iterations 6
smoothSolver:  Solving for Uy, Initial residual = 0.435691, Final residual = 0.0278354, No Iterations 3
Pressure gradient source: uncorrected Ubar = 0.999995, pressure gradient = 0.00125435
GAMG:  Solving for p, Initial residual = 0.0440005, Final residual = 0.00351045, No Iterations 12
time step continuity errors : sum local = 3.38665e-05, global = -5.18384e-19, cumulative = -1.9693e-17
Pressure gradient source: uncorrected Ubar = 0.999999, pressure gradient = 0.00118617
smoothSolver:  Solving for omega, Initial residual = 9.59025e-05, Final residual = 7.69146e-06, No Iterations 4
smoothSolver:  Solving for k, Initial residual = 0.0113853, Final residual = 0.000798829, No Iterations 5
ExecutionTime = 0.060654 s  ClockTime = 0 s

Time = 22s

smoothSolver:  Solving for Ux, Initial residual = 0.00701035, Final residual = 0.000565829, No Iterations 6
smoothSolver:  Solving for Uy, Initial residual = 0.615013, Final residual = 0.0377435, No Iterations 3
Pressure gradient source: uncorrected Ubar = 0.99998, pressure gradient = 0.00157693
GAMG:  Solving for p, Initial residual = 0.0386334, Final residual = 0.00370232, No Iterations 9
time step continuity errors : sum local = 2.68667e-05, global = 7.25261e-18, cumulative = -1.24404e-17
Pressure gradient source: uncorrected Ubar = 0.999997, pressure gradient = 0.00124445
smoothSolver:  Solving for omega, Initial residual = 9.38052e-05, Final residual = 8.4758e-06, No Iterations 4
smoothSolver:  Solving for k, Initial residual = 0.0105826, Final residual = 0.000847323, No Iterations 5
ExecutionTime = 0.062882 s  ClockTime = 0 s

Time = 23s

smoothSolver:  Solving for Ux, Initial residual = 0.00692901, Final residual = 0.000554164, No Iterations 6
smoothSolver:  Solving for Uy, Initial residual = 0.643462, Final residual = 0.0398298, No Iterations 3
Pressure gradient source: uncorrected Ubar = 0.999977, pressure gradient = 0.0016914
GAMG:  Solving for p, Initial residual = 0.0348403, Final residual = 0.00317857, No Iterations 7
time step continuity errors : sum local = 2.19766e-05, global = 5.77306e-20, cumulative = -1.23827e-17
Pressure gradient source: uncorrected Ubar = 0.999997, pressure gradient = 0.00130932
smoothSolver:  Solving for omega, Initial residual = 9.90209e-05, Final residual = 9.57461e-06, No Iterations 4
smoothSolver:  Solving for k, Initial residual = 0.0101129, Final residual = 0.000851587, No Iterations 5
ExecutionTime = 0.065059 s  ClockTime = 0 s

Time = 24s

smoothSolver:  Solving for Ux, Initial residual = 0.00682961, Final residual = 0.000540797, No Iterations 6
smoothSolver:  Solving for Uy, Initial residual = 0.449925, Final residual = 0.034146, No Iterations 3
Pressure gradient source: uncorrected Ubar = 0.999978, pressure gradient = 0.00175602
GAMG:  Solving for p, Initial residual = 0.0315425, Final residual = 0.00292396, No Iterations 3
time step continuity errors : sum local = 1.85245e-05, global = 1.22113e-17, cumulative = -1.71363e-19
Pressure gradient source: uncorrected Ubar = 0.999997, pressure gradient = 0.00137229
smoothSolver:  Solving for omega, Initial residual = 9.29956e-05, Final residual = 8.09775e-06, No Iterations 4
smoothSolver:  Solving for k, Initial residual = 0.00918253, Final residual = 0.000736448, No Iterations 5
ExecutionTime = 0.067111 s  ClockTime = 0 s

Time = 25s

smoothSolver:  Solving for Ux, Initial residual = 0.0067508, Final residual = 0.000529901, No Iterations 6
smoothSolver:  Solving for Uy, Initial residual = 0.31258, Final residual = 0.0242389, No Iterations 3
Pressure gradient source: uncorrected Ubar = 0.999966, pressure gradient = 0.00207231
GAMG:  Solving for p, Initial residual = 0.0302615, Final residual = 0.00163575, No Iterations 3
time step continuity errors : sum local = 9.01351e-06, global = 6.6508e-18, cumulative = 6.47943e-18
Pressure gradient source: uncorrected Ubar = 0.999995, pressure gradient = 0.00146954
smoothSolver:  Solving for omega, Initial residual = 9.59815e-05, Final residual = 8.78478e-06, No Iterations 4
smoothSolver:  Solving for k, Initial residual = 0.00837087, Final residual = 0.000605272, No Iterations 5
ExecutionTime = 0.069112 s  ClockTime = 0 s

Time = 26s

smoothSolver:  Solving for Ux, Initial residual = 0.00666096, Final residual = 0.000518466, No Iterations 6
smoothSolver:  Solving for Uy, Initial residual = 0.258235, Final residual = 0.0144955, No Iterations 3
Pressure gradient source: uncorrected Ubar = 0.999967, pressure gradient = 0.00214616
GAMG:  Solving for p, Initial residual = 0.0295523, Final residual = 0.00195296, No Iterations 3
time step continuity errors : sum local = 1.11374e-05, global = -7.16823e-18, cumulative = -6.88794e-19
Pressure gradient source: uncorrected Ubar = 0.999996, pressure gradient = 0.00156066
smoothSolver:  Solving for omega, Initial residual = 9.43858e-05, Final residual = 7.44293e-06, No Iterations 4
smoothSolver:  Solving for k, Initial residual = 0.00804109, Final residual = 0.000547658, No Iterations 5
ExecutionTime = 0.071095 s  ClockTime = 0 s

Time = 27s

smoothSolver:  Solving for Ux, Initial residual = 0.00656054, Final residual = 0.000506349, No Iterations 6
smoothSolver:  Solving for Uy, Initial residual = 0.239346, Final residual = 0.0129357, No Iterations 3
Pressure gradient source: uncorrected Ubar = 0.999971, pressure gradient = 0.00216658
GAMG:  Solving for p, Initial residual = 0.0314076, Final residual = 0.00265511, No Iterations 7
time step continuity errors : sum local = 1.36165e-05, global = 5.50264e-18, cumulative = 4.81384e-18
Pressure gradient source: uncorrected Ubar = 0.999996, pressure gradient = 0.00163927
smoothSolver:  Solving for omega, Initial residual = 9.4131e-05, Final residual = 7.82334e-06, No Iterations 4
smoothSolver:  Solving for k, Initial residual = 0.00759271, Final residual = 0.000502438, No Iterations 5
ExecutionTime = 0.07322 s  ClockTime = 0 s

Time = 28s

smoothSolver:  Solving for Ux, Initial residual = 0.00647431, Final residual = 0.000496505, No Iterations 6
smoothSolver:  Solving for Uy, Initial residual = 0.238618, Final residual = 0.0137819, No Iterations 3
Pressure gradient source: uncorrected Ubar = 0.999965, pressure gradient = 0.00239686
GAMG:  Solving for p, Initial residual = 0.0357384, Final residual = 0.00310343, No Iterations 11
time step continuity errors : sum local = 1.15769e-05, global = -7.899e-18, cumulative = -3.08516e-18
Pressure gradient source: uncorrected Ubar = 0.999995, pressure gradient = 0.00173712
smoothSolver:  Solving for omega, Initial residual = 9.3775e-05, Final residual = 7.94481e-06, No Iterations 4
smoothSolver:  Solving for k, Initial residual = 0.00711703, Final residual = 0.000556119, No Iterations 5
ExecutionTime = 0.075442 s  ClockTime = 0 s

Time = 29s

smoothSolver:  Solving for Ux, Initial residual = 0.00637413, Final residual = 0.000485489, No Iterations 6
smoothSolver:  Solving for Uy, Initial residual = 0.227067, Final residual = 0.0137724, No Iterations 3
Pressure gradient source: uncorrected Ubar = 0.999971, pressure gradient = 0.00236565
GAMG:  Solving for p, Initial residual = 0.0482165, Final residual = 0.00460001, No Iterations 9
time step continuity errors : sum local = 1.02972e-05, global = 8.77457e-18, cumulative = 5.68942e-18
Pressure gradient source: uncorrected Ubar = 0.999997, pressure gradient = 0.00181367
smoothSolver:  Solving for omega, Initial residual = 9.40149e-05, Final residual = 6.43943e-06, No Iterations 5
smoothSolver:  Solving for k, Initial residual = 0.00681096, Final residual = 0.000510388, No Iterations 5
ExecutionTime = 0.077632 s  ClockTime = 0 s

Time = 30s

smoothSolver:  Solving for Ux, Initial residual = 0.00628416, Final residual = 0.000475454, No Iterations 6
smoothSolver:  Solving for Uy, Initial residual = 0.21471, Final residual = 0.0124037, No Iterations 3
Pressure gradient source: uncorrected Ubar = 0.999969, pressure gradient = 0.00249768
GAMG:  Solving for p, Initial residual = 0.0547364, Final residual = 0.00485157, No Iterations 12
time step continuity errors : sum local = 8.86932e-06, global = 2.62305e-18, cumulative = 8.31247e-18
Pressure gradient source: uncorrected Ubar = 0.999996, pressure gradient = 0.00189544
smoothSolver:  Solving for omega, Initial residual = 9.00224e-05, Final residual = 8.53534e-06, No Iterations 4
smoothSolver:  Solving for k, Initial residual = 0.00655451, Final residual = 0.000599059, No Iterations 5
ExecutionTime = 0.079938 s  ClockTime = 0 s

Time = 31s

smoothSolver:  Solving for Ux, Initial residual = 0.0061953, Final residual = 0.000465461, No Iterations 6
smoothSolver:  Solving for Uy, Initial residual = 0.192234, Final residual = 0.0129585, No Iterations 3
Pressure gradient source: uncorrected Ubar = 0.999974, pressure gradient = 0.00248332
GAMG:  Solving for p, Initial residual = 0.040184, Final residual = 0.00388058, No Iterations 10
time step continuity errors : sum local = 9.11484e-06, global = 8.7778e-18, cumulative = 1.70903e-17
Pressure gradient source: uncorrected Ubar = 0.999997, pressure gradient = 0.0019606
smoothSolver:  Solving for omega, Initial residual = 8.91842e-05, Final residual = 8.39236e-06, No Iterations 4
smoothSolver:  Solving for k, Initial residual = 0.00605644, Final residual = 0.000539426, No Iterations 5
ExecutionTime = 0.082245 s  ClockTime = 0 s

Time = 32s

smoothSolver:  Solving for Ux, Initial residual = 0.00610821, Final residual = 0.000455763, No Iterations 6
smoothSolver:  Solving for Uy, Initial residual = 0.186392, Final residual = 0.011851, No Iterations 3
Pressure gradient source: uncorrected Ubar = 0.999976, pressure gradient = 0.00251007
GAMG:  Solving for p, Initial residual = 0.0319288, Final residual = 0.00274618, No Iterations 10
time step continuity errors : sum local = 7.04034e-06, global = 4.47297e-18, cumulative = 2.15632e-17
Pressure gradient source: uncorrected Ubar = 0.999998, pressure gradient = 0.00201778
smoothSolver:  Solving for omega, Initial residual = 8.76126e-05, Final residual = 7.22094e-06, No Iterations 4
smoothSolver:  Solving for k, Initial residual = 0.00547948, Final residual = 0.000500927, No Iterations 5
ExecutionTime = 0.084483 s  ClockTime = 0 s

Time = 33s

smoothSolver:  Solving for Ux, Initial residual = 0.00603261, Final residual = 0.000447474, No Iterations 6
smoothSolver:  Solving for Uy, Initial residual = 0.205936, Final residual = 0.0115221, No Iterations 3
Pressure gradient source: uncorrected Ubar = 0.999973, pressure gradient = 0.00265537
GAMG:  Solving for p, Initial residual = 0.0256085, Final residual = 0.00239653, No Iterations 5
time step continuity errors : sum local = 6.55426e-06, global = -1.26295e-17, cumulative = 8.93376e-18
Pressure gradient source: uncorrected Ubar = 0.999997, pressure gradient = 0.00208543
smoothSolver:  Solving for omega, Initial residual = 8.73933e-05, Final residual = 8.92434e-06, No Iterations 4
smoothSolver:  Solving for k, Initial residual = 0.00502238, Final residual = 0.000376, No Iterations 5
ExecutionTime = 0.086551 s  ClockTime = 0 s

Time = 34s

smoothSolver:  Solving for Ux, Initial residual = 0.0059567, Final residual = 0.000439448, No Iterations 6
smoothSolver:  Solving for Uy, Initial residual = 0.215044, Final residual = 0.0147035, No Iterations 3
Pressure gradient source: uncorrected Ubar = 0.999974, pressure gradient = 0.00269895
GAMG:  Solving for p, Initial residual = 0.0237707, Final residual = 0.00228239, No Iterations 3
time step continuity errors : sum local = 5.99406e-06, global = -6.31569e-18, cumulative = 2.61807e-18
Pressure gradient source: uncorrected Ubar = 0.999997, pressure gradient = 0.00214747
smoothSolver:  Solving for omega, Initial residual = 8.57283e-05, Final residual = 8.14211e-06, No Iterations 4
smoothSolver:  Solving for k, Initial residual = 0.00468219, Final residual = 0.000396806, No Iterations 5
ExecutionTime = 0.088512 s  ClockTime = 0 s

Time = 35s

smoothSolver:  Solving for Ux, Initial residual = 0.00588067, Final residual = 0.000431453, No Iterations 6
smoothSolver:  Solving for Uy, Initial residual = 0.218319, Final residual = 0.0175166, No Iterations 3
Pressure gradient source: uncorrected Ubar = 0.999977, pressure gradient = 0.00271098
GAMG:  Solving for p, Initial residual = 0.0222339, Final residual = 0.00211308, No Iterations 2
time step continuity errors : sum local = 4.90759e-06, global = 2.40515e-18, cumulative = 5.02323e-18
Pressure gradient source: uncorrected Ubar = 0.999998, pressure gradient = 0.00220023
smoothSolver:  Solving for omega, Initial residual = 8.41555e-05, Final residual = 7.78942e-06, No Iterations 4
smoothSolver:  Solving for k, Initial residual = 0.00446393, Final residual = 0.000399281, No Iterations 5
ExecutionTime = 0.090473 s  ClockTime = 0 s

Time = 36s

smoothSolver:  Solving for Ux, Initial residual = 0.00581089, Final residual = 0.000424177, No Iterations 6
smoothSolver:  Solving for Uy, Initial residual = 0.206589, Final residual = 0.0167787, No Iterations 3
Pressure gradient source: uncorrected Ubar = 0.999975, pressure gradient = 0.0028119
GAMG:  Solving for p, Initial residual = 0.0215579, Final residual = 0.00198314, No Iterations 2
time step continuity errors : sum local = 4.2419e-06, global = -1.16766e-18, cumulative = 3.85556e-18
Pressure gradient source: uncorrected Ubar = 0.999998, pressure gradient = 0.0022579
smoothSolver:  Solving for omega, Initial residual = 8.34372e-05, Final residual = 8.97294e-06, No Iterations 4
smoothSolver:  Solving for k, Initial residual = 0.00414698, Final residual = 0.000353948, No Iterations 5
ExecutionTime = 0.092401 s  ClockTime = 0 s

Time = 37s

smoothSolver:  Solving for Ux, Initial residual = 0.00574183, Final residual = 0.000416957, No Iterations 6
smoothSolver:  Solving for Uy, Initial residual = 0.187859, Final residual = 0.0142048, No Iterations 3
Pressure gradient source: uncorrected Ubar = 0.999978, pressure gradient = 0.00280258
GAMG:  Solving for p, Initial residual = 0.0216132, Final residual = 0.00193507, No Iterations 2
time step continuity errors : sum local = 3.60503e-06, global = -3.54303e-18, cumulative = 3.12531e-19
Pressure gradient source: uncorrected Ubar = 0.999998, pressure gradient = 0.00230365
smoothSolver:  Solving for omega, Initial residual = 8.12211e-05, Final residual = 7.88609e-06, No Iterations 4
smoothSolver:  Solving for k, Initial residual = 0.00374827, Final residual = 0.000314051, No Iterations 5
ExecutionTime = 0.094402 s  ClockTime = 0 s

Time = 38s

smoothSolver:  Solving for Ux, Initial residual = 0.00567825, Final residual = 0.000410144, No Iterations 6
smoothSolver:  Solving for Uy, Initial residual = 0.150787, Final residual = 0.00968301, No Iterations 3
Pressure gradient source: uncorrected Ubar = 0.99998, pressure gradient = 0.00280747
GAMG:  Solving for p, Initial residual = 0.022431, Final residual = 0.00115453, No Iterations 3
time step continuity errors : sum local = 1.95259e-06, global = 1.92674e-18, cumulative = 2.23927e-18
Pressure gradient source: uncorrected Ubar = 0.999998, pressure gradient = 0.00234167
smoothSolver:  Solving for omega, Initial residual = 7.88491e-05, Final residual = 6.78655e-06, No Iterations 4
smoothSolver:  Solving for k, Initial residual = 0.00351025, Final residual = 0.00024851, No Iterations 5
ExecutionTime = 0.096511 s  ClockTime = 0 s

Time = 39s

smoothSolver:  Solving for Ux, Initial residual = 0.00562724, Final residual = 0.00040495, No Iterations 6
smoothSolver:  Solving for Uy, Initial residual = 0.115307, Final residual = 0.00653817, No Iterations 3
Pressure gradient source: uncorrected Ubar = 0.999975, pressure gradient = 0.00298437
GAMG:  Solving for p, Initial residual = 0.021977, Final residual = 0.00198153, No Iterations 2
time step continuity errors : sum local = 2.67948e-06, global = 2.25681e-18, cumulative = 4.49608e-18
Pressure gradient source: uncorrected Ubar = 0.999998, pressure gradient = 0.00239871
smoothSolver:  Solving for omega, Initial residual = 7.82281e-05, Final residual = 7.52894e-06, No Iterations 4
smoothSolver:  Solving for k, Initial residual = 0.00352463, Final residual = 0.000292447, No Iterations 5
ExecutionTime = 0.098554 s  ClockTime = 0 s

Time = 40s

smoothSolver:  Solving for Ux, Initial residual = 0.00557293, Final residual = 0.000399617, No Iterations 6
smoothSolver:  Solving for Uy, Initial residual = 0.0967139, Final residual = 0.00566016, No Iterations 3
Pressure gradient source: uncorrected Ubar = 0.999976, pressure gradient = 0.00300455
GAMG:  Solving for p, Initial residual = 0.0218731, Final residual = 0.00187544, No Iterations 4
time step continuity errors : sum local = 2.40614e-06, global = 2.21082e-18, cumulative = 6.70689e-18
Pressure gradient source: uncorrected Ubar = 0.999998, pressure gradient = 0.00244868
smoothSolver:  Solving for omega, Initial residual = 7.6945e-05, Final residual = 7.48958e-06, No Iterations 4
smoothSolver:  Solving for k, Initial residual = 0.00355685, Final residual = 0.000329712, No Iterations 5
ExecutionTime = 0.100612 s  ClockTime = 0 s

Time = 41s

smoothSolver:  Solving for Ux, Initial residual = 0.0055126, Final residual = 0.000393499, No Iterations 6
smoothSolver:  Solving for Uy, Initial residual = 0.0797603, Final residual = 0.00436944, No Iterations 3
Pressure gradient source: uncorrected Ubar = 0.999982, pressure gradient = 0.00290748
GAMG:  Solving for p, Initial residual = 0.0229048, Final residual = 0.00213014, No Iterations 6
time step continuity errors : sum local = 2.4376e-06, global = -7.62522e-19, cumulative = 5.94437e-18
Pressure gradient source: uncorrected Ubar = 0.999999, pressure gradient = 0.00247565
smoothSolver:  Solving for omega, Initial residual = 7.54648e-05, Final residual = 8.41251e-06, No Iterations 4
smoothSolver:  Solving for k, Initial residual = 0.00353461, Final residual = 0.00033045, No Iterations 5
ExecutionTime = 0.10268 s  ClockTime = 0 s

Time = 42s

smoothSolver:  Solving for Ux, Initial residual = 0.00546223, Final residual = 0.000388454, No Iterations 6
smoothSolver:  Solving for Uy, Initial residual = 0.0664631, Final residual = 0.00514038, No Iterations 2
Pressure gradient source: uncorrected Ubar = 0.99998, pressure gradient = 0.00300389
GAMG:  Solving for p, Initial residual = 0.0245265, Final residual = 0.00207323, No Iterations 8
time step continuity errors : sum local = 2.07926e-06, global = -1.74092e-19, cumulative = 5.77028e-18
Pressure gradient source: uncorrected Ubar = 0.999999, pressure gradient = 0.0025116
smoothSolver:  Solving for omega, Initial residual = 7.36887e-05, Final residual = 7.56777e-06, No Iterations 4
smoothSolver:  Solving for k, Initial residual = 0.00342249, Final residual = 0.000293987, No Iterations 5
ExecutionTime = 0.104798 s  ClockTime = 0 s

Time = 43s

smoothSolver:  Solving for Ux, Initial residual = 0.00541085, Final residual = 0.000383422, No Iterations 6
smoothSolver:  Solving for Uy, Initial residual = 0.0590674, Final residual = 0.00304397, No Iterations 2
Pressure gradient source: uncorrected Ubar = 0.999982, pressure gradient = 0.00299314
GAMG:  Solving for p, Initial residual = 0.0267888, Final residual = 0.00233778, No Iterations 8
time step continuity errors : sum local = 2.123e-06, global = 6.36546e-18, cumulative = 1.21357e-17
Pressure gradient source: uncorrected Ubar = 0.999999, pressure gradient = 0.00253962
smoothSolver:  Solving for omega, Initial residual = 7.20487e-05, Final residual = 6.73162e-06, No Iterations 4
smoothSolver:  Solving for k, Initial residual = 0.0033655, Final residual = 0.000234171, No Iterations 5
ExecutionTime = 0.106983 s  ClockTime = 0 s

Time = 44s

smoothSolver:  Solving for Ux, Initial residual = 0.00536814, Final residual = 0.000379201, No Iterations 6
smoothSolver:  Solving for Uy, Initial residual = 0.067267, Final residual = 0.00385039, No Iterations 3
Pressure gradient source: uncorrected Ubar = 0.999979, pressure gradient = 0.00309527
GAMG:  Solving for p, Initial residual = 0.0247545, Final residual = 0.00209551, No Iterations 12
time step continuity errors : sum local = 1.61969e-06, global = -1.48175e-17, cumulative = -2.68178e-18
Pressure gradient source: uncorrected Ubar = 0.999999, pressure gradient = 0.00257744
smoothSolver:  Solving for omega, Initial residual = 6.98577e-05, Final residual = 6.54634e-06, No Iterations 4
smoothSolver:  Solving for k, Initial residual = 0.00350282, Final residual = 0.000312163, No Iterations 5
ExecutionTime = 0.109212 s  ClockTime = 0 s

Time = 45s

smoothSolver:  Solving for Ux, Initial residual = 0.00532832, Final residual = 0.000375412, No Iterations 6
smoothSolver:  Solving for Uy, Initial residual = 0.0727381, Final residual = 0.00622545, No Iterations 3
Pressure gradient source: uncorrected Ubar = 0.999979, pressure gradient = 0.00314237
GAMG:  Solving for p, Initial residual = 0.0263804, Final residual = 0.00193151, No Iterations 12
time step continuity errors : sum local = 1.39309e-06, global = -5.41322e-18, cumulative = -8.095e-18
Pressure gradient source: uncorrected Ubar = 0.999999, pressure gradient = 0.00261565
smoothSolver:  Solving for omega, Initial residual = 6.899e-05, Final residual = 6.96748e-06, No Iterations 4
smoothSolver:  Solving for k, Initial residual = 0.00354937, Final residual = 0.000309285, No Iterations 5
ExecutionTime = 0.111586 s  ClockTime = 0 s

Time = 46s

smoothSolver:  Solving for Ux, Initial residual = 0.0052911, Final residual = 0.000372008, No Iterations 6
smoothSolver:  Solving for Uy, Initial residual = 0.0691861, Final residual = 0.00378861, No Iterations 3
Pressure gradient source: uncorrected Ubar = 0.999979, pressure gradient = 0.00318809
GAMG:  Solving for p, Initial residual = 0.027859, Final residual = 0.00277527, No Iterations 10
time step continuity errors : sum local = 1.76935e-06, global = -1.1755e-17, cumulative = -1.985e-17
Pressure gradient source: uncorrected Ubar = 0.999999, pressure gradient = 0.00265428
smoothSolver:  Solving for omega, Initial residual = 6.78292e-05, Final residual = 7.03185e-06, No Iterations 4
smoothSolver:  Solving for k, Initial residual = 0.00356457, Final residual = 0.000293602, No Iterations 5
ExecutionTime = 0.113897 s  ClockTime = 0 s

Time = 47s

smoothSolver:  Solving for Ux, Initial residual = 0.00524836, Final residual = 0.000367884, No Iterations 6
smoothSolver:  Solving for Uy, Initial residual = 0.0703625, Final residual = 0.00585144, No Iterations 3
Pressure gradient source: uncorrected Ubar = 0.999983, pressure gradient = 0.00312528
GAMG:  Solving for p, Initial residual = 0.0277032, Final residual = 0.00246885, No Iterations 12
time step continuity errors : sum local = 1.46512e-06, global = 4.57837e-18, cumulative = -1.52716e-17
Pressure gradient source: uncorrected Ubar = 0.999999, pressure gradient = 0.00267719
smoothSolver:  Solving for omega, Initial residual = 6.65073e-05, Final residual = 7.19252e-06, No Iterations 4
smoothSolver:  Solving for k, Initial residual = 0.00356352, Final residual = 0.000325603, No Iterations 5
ExecutionTime = 0.116247 s  ClockTime = 0 s

Time = 48s

smoothSolver:  Solving for Ux, Initial residual = 0.00520959, Final residual = 0.000364024, No Iterations 6
smoothSolver:  Solving for Uy, Initial residual = 0.0529609, Final residual = 0.00395803, No Iterations 3
Pressure gradient source: uncorrected Ubar = 0.999983, pressure gradient = 0.00315795
GAMG:  Solving for p, Initial residual = 0.0237596, Final residual = 0.00194577, No Iterations 12
time step continuity errors : sum local = 1.19511e-06, global = 2.69547e-18, cumulative = -1.25761e-17
Pressure gradient source: uncorrected Ubar = 0.999999, pressure gradient = 0.00270073
smoothSolver:  Solving for omega, Initial residual = 6.45818e-05, Final residual = 6.66908e-06, No Iterations 4
smoothSolver:  Solving for k, Initial residual = 0.00362519, Final residual = 0.000322302, No Iterations 5
ExecutionTime = 0.118549 s  ClockTime = 0 s

Time = 49s

smoothSolver:  Solving for Ux, Initial residual = 0.00517494, Final residual = 0.000360742, No Iterations 6
smoothSolver:  Solving for Uy, Initial residual = 0.0502065, Final residual = 0.00347402, No Iterations 3
Pressure gradient source: uncorrected Ubar = 0.999982, pressure gradient = 0.00321676
GAMG:  Solving for p, Initial residual = 0.0224922, Final residual = 0.00200133, No Iterations 10
time step continuity errors : sum local = 1.09943e-06, global = -4.25864e-18, cumulative = -1.68348e-17
Pressure gradient source: uncorrected Ubar = 0.999999, pressure gradient = 0.00272884
smoothSolver:  Solving for omega, Initial residual = 6.34537e-05, Final residual = 6.9105e-06, No Iterations 4
smoothSolver:  Solving for k, Initial residual = 0.00375201, Final residual = 0.000314497, No Iterations 5
ExecutionTime = 0.120653 s  ClockTime = 0 s

Time = 50s

smoothSolver:  Solving for Ux, Initial residual = 0.0051411, Final residual = 0.000357754, No Iterations 6
smoothSolver:  Solving for Uy, Initial residual = 0.0539494, Final residual = 0.00396648, No Iterations 3
Pressure gradient source: uncorrected Ubar = 0.999982, pressure gradient = 0.00324635
GAMG:  Solving for p, Initial residual = 0.0253948, Final residual = 0.00248971, No Iterations 9
time step continuity errors : sum local = 1.14483e-06, global = 1.40009e-17, cumulative = -2.83388e-18
Pressure gradient source: uncorrected Ubar = 0.999999, pressure gradient = 0.00275661
smoothSolver:  Solving for omega, Initial residual = 6.1919e-05, Final residual = 6.62465e-06, No Iterations 4
smoothSolver:  Solving for k, Initial residual = 0.00392549, Final residual = 0.000251566, No Iterations 6
ExecutionTime = 0.122741 s  ClockTime = 0 s

Time = 51s

smoothSolver:  Solving for Ux, Initial residual = 0.00510616, Final residual = 0.000354755, No Iterations 6
smoothSolver:  Solving for Uy, Initial residual = 0.0515808, Final residual = 0.00357766, No Iterations 3
Pressure gradient source: uncorrected Ubar = 0.999982, pressure gradient = 0.00326326
GAMG:  Solving for p, Initial residual = 0.0252657, Final residual = 0.00243664, No Iterations 9
time step continuity errors : sum local = 1.10789e-06, global = 1.98081e-18, cumulative = -8.53069e-19
Pressure gradient source: uncorrected Ubar = 0.999999, pressure gradient = 0.00278207
smoothSolver:  Solving for omega, Initial residual = 6.10189e-05, Final residual = 6.81547e-06, No Iterations 4
smoothSolver:  Solving for k, Initial residual = 0.00396862, Final residual = 0.000255701, No Iterations 6
ExecutionTime = 0.124848 s  ClockTime = 0 s

Time = 52s

smoothSolver:  Solving for Ux, Initial residual = 0.00506899, Final residual = 0.000351108, No Iterations 6
smoothSolver:  Solving for Uy, Initial residual = 0.0542552, Final residual = 0.00498078, No Iterations 3
Pressure gradient source: uncorrected Ubar = 0.999986, pressure gradient = 0.00317982
GAMG:  Solving for p, Initial residual = 0.0240313, Final residual = 0.0023002, No Iterations 9
time step continuity errors : sum local = 9.61343e-07, global = -3.4226e-18, cumulative = -4.27566e-18
Pressure gradient source: uncorrected Ubar = 1, pressure gradient = 0.00279079
smoothSolver:  Solving for omega, Initial residual = 5.92586e-05, Final residual = 6.28095e-06, No Iterations 4
smoothSolver:  Solving for k, Initial residual = 0.00397009, Final residual = 0.000355357, No Iterations 5
ExecutionTime = 0.126995 s  ClockTime = 0 s

Time = 53s

smoothSolver:  Solving for Ux, Initial residual = 0.0050389, Final residual = 0.000348229, No Iterations 6
smoothSolver:  Solving for Uy, Initial residual = 0.0491576, Final residual = 0.00428355, No Iterations 3
Pressure gradient source: uncorrected Ubar = 0.999984, pressure gradient = 0.00325865
GAMG:  Solving for p, Initial residual = 0.0212581, Final residual = 0.00191102, No Iterations 8
time step continuity errors : sum local = 8.91243e-07, global = 3.76696e-18, cumulative = -5.087e-19
Pressure gradient source: uncorrected Ubar = 0.999999, pressure gradient = 0.00280956
smoothSolver:  Solving for omega, Initial residual = 5.81838e-05, Final residual = 6.34232e-06, No Iterations 4
smoothSolver:  Solving for k, Initial residual = 0.00414821, Final residual = 0.000274978, No Iterations 6
ExecutionTime = 0.129139 s  ClockTime = 0 s

Time = 54s

smoothSolver:  Solving for Ux, Initial residual = 0.00500751, Final residual = 0.000345202, No Iterations 6
smoothSolver:  Solving for Uy, Initial residual = 0.0355088, Final residual = 0.00162308, No Iterations 3
Pressure gradient source: uncorrected Ubar = 0.999985, pressure gradient = 0.0032552
GAMG:  Solving for p, Initial residual = 0.0215315, Final residual = 0.00191813, No Iterations 8
time step continuity errors : sum local = 8.66166e-07, global = -3.03434e-18, cumulative = -3.54304e-18
Pressure gradient source: uncorrected Ubar = 0.999999, pressure gradient = 0.00282464
smoothSolver:  Solving for omega, Initial residual = 5.65483e-05, Final residual = 9.30558e-06, No Iterations 3
smoothSolver:  Solving for k, Initial residual = 0.00438005, Final residual = 0.000318012, No Iterations 6
ExecutionTime = 0.131512 s  ClockTime = 0 s

Time = 55s

smoothSolver:  Solving for Ux, Initial residual = 0.004976, Final residual = 0.000342271, No Iterations 6
smoothSolver:  Solving for Uy, Initial residual = 0.0397481, Final residual = 0.00355528, No Iterations 3
Pressure gradient source: uncorrected Ubar = 0.999985, pressure gradient = 0.00327003
GAMG:  Solving for p, Initial residual = 0.0208884, Final residual = 0.00188811, No Iterations 11
time step continuity errors : sum local = 7.2059e-07, global = 1.86776e-18, cumulative = -1.67528e-18
Pressure gradient source: uncorrected Ubar = 0.999999, pressure gradient = 0.00283941
smoothSolver:  Solving for omega, Initial residual = 5.69359e-05, Final residual = 6.66291e-06, No Iterations 4
smoothSolver:  Solving for k, Initial residual = 0.00437219, Final residual = 0.000281258, No Iterations 6
ExecutionTime = 0.133799 s  ClockTime = 0 s

Time = 56s

smoothSolver:  Solving for Ux, Initial residual = 0.00493971, Final residual = 0.000338876, No Iterations 6
smoothSolver:  Solving for Uy, Initial residual = 0.0367811, Final residual = 0.00321647, No Iterations 3
Pressure gradient source: uncorrected Ubar = 0.999986, pressure gradient = 0.00323939
GAMG:  Solving for p, Initial residual = 0.0253213, Final residual = 0.00238398, No Iterations 8
time step continuity errors : sum local = 1.11571e-06, global = -7.49243e-18, cumulative = -9.16771e-18
Pressure gradient source: uncorrected Ubar = 1, pressure gradient = 0.00284702
smoothSolver:  Solving for omega, Initial residual = 5.53781e-05, Final residual = 6.60305e-06, No Iterations 4
smoothSolver:  Solving for k, Initial residual = 0.00438483, Final residual = 0.000286697, No Iterations 6
ExecutionTime = 0.135918 s  ClockTime = 0 s

Time = 57s

smoothSolver:  Solving for Ux, Initial residual = 0.00490702, Final residual = 0.000335906, No Iterations 6
smoothSolver:  Solving for Uy, Initial residual = 0.0443452, Final residual = 0.00362315, No Iterations 3
Pressure gradient source: uncorrected Ubar = 0.999986, pressure gradient = 0.00326933
GAMG:  Solving for p, Initial residual = 0.0214513, Final residual = 0.0019131, No Iterations 7
time step continuity errors : sum local = 6.83955e-07, global = 4.86174e-18, cumulative = -4.30597e-18
Pressure gradient source: uncorrected Ubar = 1, pressure gradient = 0.00285773
smoothSolver:  Solving for omega, Initial residual = 5.30567e-05, Final residual = 8.93813e-06, No Iterations 3
smoothSolver:  Solving for k, Initial residual = 0.00451204, Final residual = 0.000291023, No Iterations 6
ExecutionTime = 0.137994 s  ClockTime = 0 s

Time = 58s

smoothSolver:  Solving for Ux, Initial residual = 0.00488492, Final residual = 0.000333892, No Iterations 6
smoothSolver:  Solving for Uy, Initial residual = 0.0419831, Final residual = 0.00340601, No Iterations 3
Pressure gradient source: uncorrected Ubar = 0.999984, pressure gradient = 0.00333589
GAMG:  Solving for p, Initial residual = 0.0237607, Final residual = 0.00193711, No Iterations 11
time step continuity errors : sum local = 7.99838e-07, global = 4.87666e-18, cumulative = 5.70691e-19
Pressure gradient source: uncorrected Ubar = 0.999999, pressure gradient = 0.00287667
smoothSolver:  Solving for omega, Initial residual = 5.34933e-05, Final residual = 9.16903e-06, No Iterations 3
smoothSolver:  Solving for k, Initial residual = 0.00457022, Final residual = 0.000406071, No Iterations 5
ExecutionTime = 0.140196 s  ClockTime = 0 s

Time = 59s

smoothSolver:  Solving for Ux, Initial residual = 0.00485972, Final residual = 0.000331725, No Iterations 6
smoothSolver:  Solving for Uy, Initial residual = 0.0404053, Final residual = 0.00368498, No Iterations 3
Pressure gradient source: uncorrected Ubar = 0.999984, pressure gradient = 0.00334407
GAMG:  Solving for p, Initial residual = 0.0199259, Final residual = 0.00159677, No Iterations 13
time step continuity errors : sum local = 6.27025e-07, global = -4.84704e-18, cumulative = -4.27635e-18
Pressure gradient source: uncorrected Ubar = 0.999999, pressure gradient = 0.00289387
smoothSolver:  Solving for omega, Initial residual = 5.26903e-05, Final residual = 6.44337e-06, No Iterations 4
smoothSolver:  Solving for k, Initial residual = 0.00469593, Final residual = 0.000457569, No Iterations 5
ExecutionTime = 0.142457 s  ClockTime = 0 s

Time = 60s

smoothSolver:  Solving for Ux, Initial residual = 0.00483236, Final residual = 0.000329323, No Iterations 6
smoothSolver:  Solving for Uy, Initial residual = 0.036333, Final residual = 0.00348917, No Iterations 3
Pressure gradient source: uncorrected Ubar = 0.999985, pressure gradient = 0.00334594
GAMG:  Solving for p, Initial residual = 0.0179661, Final residual = 0.00132728, No Iterations 15
time step continuity errors : sum local = 4.92452e-07, global = -7.24022e-18, cumulative = -1.15166e-17
Pressure gradient source: uncorrected Ubar = 1, pressure gradient = 0.00290857
smoothSolver:  Solving for omega, Initial residual = 5.16661e-05, Final residual = 6.39361e-06, No Iterations 4
smoothSolver:  Solving for k, Initial residual = 0.0048817, Final residual = 0.00033374, No Iterations 6
ExecutionTime = 0.144779 s  ClockTime = 0 s

Time = 61s

smoothSolver:  Solving for Ux, Initial residual = 0.00479884, Final residual = 0.000326341, No Iterations 6
smoothSolver:  Solving for Uy, Initial residual = 0.034175, Final residual = 0.00292676, No Iterations 3
Pressure gradient source: uncorrected Ubar = 0.999987, pressure gradient = 0.0033053
GAMG:  Solving for p, Initial residual = 0.0178883, Final residual = 0.00147246, No Iterations 9
time step continuity errors : sum local = 5.18261e-07, global = 1.56371e-18, cumulative = -9.95286e-18
Pressure gradient source: uncorrected Ubar = 1, pressure gradient = 0.00291489
smoothSolver:  Solving for omega, Initial residual = 4.99104e-05, Final residual = 9.38654e-06, No Iterations 3
smoothSolver:  Solving for k, Initial residual = 0.00502574, Final residual = 0.000344007, No Iterations 6
ExecutionTime = 0.147147 s  ClockTime = 0 s

Time = 62s

smoothSolver:  Solving for Ux, Initial residual = 0.00477157, Final residual = 0.000323816, No Iterations 6
smoothSolver:  Solving for Uy, Initial residual = 0.0358045, Final residual = 0.00182515, No Iterations 4
Pressure gradient source: uncorrected Ubar = 0.999986, pressure gradient = 0.00333887
GAMG:  Solving for p, Initial residual = 0.0244287, Final residual = 0.00196699, No Iterations 6
time step continuity errors : sum local = 6.68392e-07, global = 5.42126e-18, cumulative = -4.5316e-18
Pressure gradient source: uncorrected Ubar = 1, pressure gradient = 0.00292537
smoothSolver:  Solving for omega, Initial residual = 4.94111e-05, Final residual = 8.65835e-06, No Iterations 3
smoothSolver:  Solving for k, Initial residual = 0.00496905, Final residual = 0.000436835, No Iterations 5
ExecutionTime = 0.14931 s  ClockTime = 0 s

Time = 63s

smoothSolver:  Solving for Ux, Initial residual = 0.0047475, Final residual = 0.000321616, No Iterations 6
smoothSolver:  Solving for Uy, Initial residual = 0.0360137, Final residual = 0.00336751, No Iterations 3
Pressure gradient source: uncorrected Ubar = 0.999985, pressure gradient = 0.00336807
GAMG:  Solving for p, Initial residual = 0.0256333, Final residual = 0.00214946, No Iterations 9
time step continuity errors : sum local = 7.08086e-07, global = -1.32562e-18, cumulative = -5.85721e-18
Pressure gradient source: uncorrected Ubar = 1, pressure gradient = 0.00293868
smoothSolver:  Solving for omega, Initial residual = 4.88788e-05, Final residual = 8.73957e-06, No Iterations 3
smoothSolver:  Solving for k, Initial residual = 0.00524113, Final residual = 0.000517816, No Iterations 5
ExecutionTime = 0.151489 s  ClockTime = 0 s

Time = 64s

smoothSolver:  Solving for Ux, Initial residual = 0.00471916, Final residual = 0.000319027, No Iterations 6
smoothSolver:  Solving for Uy, Initial residual = 0.0334934, Final residual = 0.00312139, No Iterations 3
Pressure gradient source: uncorrected Ubar = 0.999986, pressure gradient = 0.00335557
GAMG:  Solving for p, Initial residual = 0.0183696, Final residual = 0.00153929, No Iterations 11
time step continuity errors : sum local = 5.39703e-07, global = -4.87057e-19, cumulative = -6.34427e-18
Pressure gradient source: uncorrected Ubar = 1, pressure gradient = 0.00294821
smoothSolver:  Solving for omega, Initial residual = 4.83921e-05, Final residual = 9.41457e-06, No Iterations 3
smoothSolver:  Solving for k, Initial residual = 0.00549055, Final residual = 0.000398106, No Iterations 6
ExecutionTime = 0.15371 s  ClockTime = 0 s

Time = 65s

smoothSolver:  Solving for Ux, Initial residual = 0.00469291, Final residual = 0.000316464, No Iterations 6
smoothSolver:  Solving for Uy, Initial residual = 0.0379316, Final residual = 0.00264723, No Iterations 4
Pressure gradient source: uncorrected Ubar = 0.999986, pressure gradient = 0.00337105
GAMG:  Solving for p, Initial residual = 0.0218649, Final residual = 0.00199459, No Iterations 7
time step continuity errors : sum local = 6.31357e-07, global = -1.85004e-18, cumulative = -8.19431e-18
Pressure gradient source: uncorrected Ubar = 1, pressure gradient = 0.00295883
smoothSolver:  Solving for omega, Initial residual = 4.7802e-05, Final residual = 9.0264e-06, No Iterations 3
smoothSolver:  Solving for k, Initial residual = 0.00549171, Final residual = 0.000523186, No Iterations 5
ExecutionTime = 0.155758 s  ClockTime = 0 s

Time = 66s

smoothSolver:  Solving for Ux, Initial residual = 0.00466331, Final residual = 0.00031376, No Iterations 6
smoothSolver:  Solving for Uy, Initial residual = 0.0600376, Final residual = 0.00482115, No Iterations 4
Pressure gradient source: uncorrected Ubar = 0.999987, pressure gradient = 0.00334806
GAMG:  Solving for p, Initial residual = 0.0216159, Final residual = 0.00184115, No Iterations 8
time step continuity errors : sum local = 6.25353e-07, global = -3.99404e-18, cumulative = -1.21884e-17
Pressure gradient source: uncorrected Ubar = 1, pressure gradient = 0.00296455
smoothSolver:  Solving for omega, Initial residual = 4.71794e-05, Final residual = 9.41348e-06, No Iterations 3
smoothSolver:  Solving for k, Initial residual = 0.00566529, Final residual = 0.000546859, No Iterations 5
ExecutionTime = 0.157816 s  ClockTime = 0 s

Time = 67s

smoothSolver:  Solving for Ux, Initial residual = 0.00463092, Final residual = 0.000310796, No Iterations 6
smoothSolver:  Solving for Uy, Initial residual = 0.038944, Final residual = 0.00213348, No Iterations 4
Pressure gradient source: uncorrected Ubar = 0.999987, pressure gradient = 0.00336148
GAMG:  Solving for p, Initial residual = 0.019507, Final residual = 0.00186793, No Iterations 9
time step continuity errors : sum local = 6.50427e-07, global = -2.44042e-18, cumulative = -1.46288e-17
Pressure gradient source: uncorrected Ubar = 1, pressure gradient = 0.0029716
smoothSolver:  Solving for omega, Initial residual = 4.58187e-05, Final residual = 8.62866e-06, No Iterations 3
smoothSolver:  Solving for k, Initial residual = 0.00586877, Final residual = 0.000574999, No Iterations 5
ExecutionTime = 0.159906 s  ClockTime = 0 s

Time = 68s

smoothSolver:  Solving for Ux, Initial residual = 0.00460489, Final residual = 0.000308389, No Iterations 6
smoothSolver:  Solving for Uy, Initial residual = 0.064519, Final residual = 0.00366257, No Iterations 4
Pressure gradient source: uncorrected Ubar = 0.999986, pressure gradient = 0.00340881
GAMG:  Solving for p, Initial residual = 0.0238109, Final residual = 0.00209637, No Iterations 9
time step continuity errors : sum local = 7.54586e-07, global = -6.35178e-18, cumulative = -2.09806e-17
Pressure gradient source: uncorrected Ubar = 1, pressure gradient = 0.00298491
smoothSolver:  Solving for omega, Initial residual = 4.53999e-05, Final residual = 8.39986e-06, No Iterations 3
smoothSolver:  Solving for k, Initial residual = 0.00585123, Final residual = 0.000519996, No Iterations 5
ExecutionTime = 0.162113 s  ClockTime = 0 s

Time = 69s

smoothSolver:  Solving for Ux, Initial residual = 0.00457665, Final residual = 0.000305907, No Iterations 6
smoothSolver:  Solving for Uy, Initial residual = 0.0468523, Final residual = 0.00407683, No Iterations 3
Pressure gradient source: uncorrected Ubar = 0.999986, pressure gradient = 0.00341281
GAMG:  Solving for p, Initial residual = 0.0204822, Final residual = 0.00202589, No Iterations 14
time step continuity errors : sum local = 6.5208e-07, global = -1.8984e-18, cumulative = -2.2879e-17
Pressure gradient source: uncorrected Ubar = 1, pressure gradient = 0.00299706
smoothSolver:  Solving for omega, Initial residual = 4.45197e-05, Final residual = 8.44725e-06, No Iterations 3
smoothSolver:  Solving for k, Initial residual = 0.0062802, Final residual = 0.000460831, No Iterations 6
ExecutionTime = 0.164611 s  ClockTime = 0 s

Time = 70s

smoothSolver:  Solving for Ux, Initial residual = 0.00454139, Final residual = 0.000302841, No Iterations 6
smoothSolver:  Solving for Uy, Initial residual = 0.0440588, Final residual = 0.00282998, No Iterations 4
Pressure gradient source: uncorrected Ubar = 0.999988, pressure gradient = 0.00338537
GAMG:  Solving for p, Initial residual = 0.0191446, Final residual = 0.00182496, No Iterations 12
time step continuity errors : sum local = 5.71353e-07, global = -3.82591e-18, cumulative = -2.67049e-17
Pressure gradient source: uncorrected Ubar = 1, pressure gradient = 0.00300354
smoothSolver:  Solving for omega, Initial residual = 4.45153e-05, Final residual = 9.34773e-06, No Iterations 3
smoothSolver:  Solving for k, Initial residual = 0.00651634, Final residual = 0.000526315, No Iterations 6
ExecutionTime = 0.16694 s  ClockTime = 0 s

Time = 71s

smoothSolver:  Solving for Ux, Initial residual = 0.00450413, Final residual = 0.000299277, No Iterations 6
smoothSolver:  Solving for Uy, Initial residual = 0.033396, Final residual = 0.00188943, No Iterations 4
Pressure gradient source: uncorrected Ubar = 0.999988, pressure gradient = 0.00336821
GAMG:  Solving for p, Initial residual = 0.0133416, Final residual = 0.00105546, No Iterations 15
time step continuity errors : sum local = 3.23128e-07, global = -1.32496e-18, cumulative = -2.80298e-17
Pressure gradient source: uncorrected Ubar = 1, pressure gradient = 0.00300668
smoothSolver:  Solving for omega, Initial residual = 4.35316e-05, Final residual = 8.84665e-06, No Iterations 3
smoothSolver:  Solving for k, Initial residual = 0.00641037, Final residual = 0.000619754, No Iterations 5
ExecutionTime = 0.169275 s  ClockTime = 0 s

Time = 72s

smoothSolver:  Solving for Ux, Initial residual = 0.00447333, Final residual = 0.000296155, No Iterations 6
smoothSolver:  Solving for Uy, Initial residual = 0.0722568, Final residual = 0.00473342, No Iterations 4
Pressure gradient source: uncorrected Ubar = 0.999988, pressure gradient = 0.0033936
GAMG:  Solving for p, Initial residual = 0.0334959, Final residual = 0.00240564, No Iterations 4
time step continuity errors : sum local = 5.79762e-07, global = 3.9783e-18, cumulative = -2.40515e-17
Pressure gradient source: uncorrected Ubar = 1, pressure gradient = 0.00301342
smoothSolver:  Solving for omega, Initial residual = 4.20936e-05, Final residual = 7.14872e-06, No Iterations 3
smoothSolver:  Solving for k, Initial residual = 0.00649812, Final residual = 0.000554256, No Iterations 5
ExecutionTime = 0.17125 s  ClockTime = 0 s

Time = 73s

smoothSolver:  Solving for Ux, Initial residual = 0.00444423, Final residual = 0.000293337, No Iterations 6
smoothSolver:  Solving for Uy, Initial residual = 0.0613886, Final residual = 0.00325954, No Iterations 4
Pressure gradient source: uncorrected Ubar = 0.999987, pressure gradient = 0.0034223
GAMG:  Solving for p, Initial residual = 0.0286911, Final residual = 0.00278639, No Iterations 7
time step continuity errors : sum local = 8.35988e-07, global = -5.49806e-18, cumulative = -2.95496e-17
Pressure gradient source: uncorrected Ubar = 1, pressure gradient = 0.00302381
smoothSolver:  Solving for omega, Initial residual = 4.21889e-05, Final residual = 8.55596e-06, No Iterations 3
smoothSolver:  Solving for k, Initial residual = 0.00702536, Final residual = 0.000526998, No Iterations 6
ExecutionTime = 0.173295 s  ClockTime = 0 s

Time = 74s

smoothSolver:  Solving for Ux, Initial residual = 0.00440537, Final residual = 0.000439331, No Iterations 5
smoothSolver:  Solving for Uy, Initial residual = 0.0418149, Final residual = 0.00408973, No Iterations 3
Pressure gradient source: uncorrected Ubar = 0.999981, pressure gradient = 0.00363543
GAMG:  Solving for p, Initial residual = 0.0245369, Final residual = 0.00151264, No Iterations 4
time step continuity errors : sum local = 4.0876e-07, global = 2.24633e-18, cumulative = -2.73033e-17
Pressure gradient source: uncorrected Ubar = 0.999999, pressure gradient = 0.00305112
smoothSolver:  Solving for omega, Initial residual = 4.07014e-05, Final residual = 8.74338e-06, No Iterations 3
smoothSolver:  Solving for k, Initial residual = 0.00725512, Final residual = 0.000586537, No Iterations 6
ExecutionTime = 0.175335 s  ClockTime = 0 s

Time = 75s

smoothSolver:  Solving for Ux, Initial residual = 0.00436508, Final residual = 0.000434683, No Iterations 5
smoothSolver:  Solving for Uy, Initial residual = 0.0383271, Final residual = 0.00296414, No Iterations 4
Pressure gradient source: uncorrected Ubar = 0.999983, pressure gradient = 0.00357406
GAMG:  Solving for p, Initial residual = 0.0250204, Final residual = 0.00220266, No Iterations 13
time step continuity errors : sum local = 5.96972e-07, global = -6.57778e-18, cumulative = -3.3881e-17
Pressure gradient source: uncorrected Ubar = 1, pressure gradient = 0.00306507
smoothSolver:  Solving for omega, Initial residual = 4.03229e-05, Final residual = 8.49216e-06, No Iterations 3
smoothSolver:  Solving for k, Initial residual = 0.00700763, Final residual = 0.000617891, No Iterations 5
ExecutionTime = 0.177658 s  ClockTime = 0 s

Time = 76s

smoothSolver:  Solving for Ux, Initial residual = 0.00432924, Final residual = 0.000430126, No Iterations 5
smoothSolver:  Solving for Uy, Initial residual = 0.0504181, Final residual = 0.00441148, No Iterations 4
Pressure gradient source: uncorrected Ubar = 0.999984, pressure gradient = 0.00355869
GAMG:  Solving for p, Initial residual = 0.0215764, Final residual = 0.00188864, No Iterations 6
time step continuity errors : sum local = 5.329e-07, global = 1.92471e-18, cumulative = -3.19563e-17
Pressure gradient source: uncorrected Ubar = 1, pressure gradient = 0.00307495
smoothSolver:  Solving for omega, Initial residual = 3.91297e-05, Final residual = 7.5446e-06, No Iterations 3
smoothSolver:  Solving for k, Initial residual = 0.00717381, Final residual = 0.000638048, No Iterations 5
ExecutionTime = 0.179914 s  ClockTime = 0 s

Time = 77s

smoothSolver:  Solving for Ux, Initial residual = 0.00429186, Final residual = 0.000425006, No Iterations 5
smoothSolver:  Solving for Uy, Initial residual = 0.0571635, Final residual = 0.00416002, No Iterations 4
Pressure gradient source: uncorrected Ubar = 0.999985, pressure gradient = 0.0035458
GAMG:  Solving for p, Initial residual = 0.0335243, Final residual = 0.00224054, No Iterations 3
time step continuity errors : sum local = 6.60394e-07, global = 5.53007e-18, cumulative = -2.64263e-17
Pressure gradient source: uncorrected Ubar = 1, pressure gradient = 0.00308175
smoothSolver:  Solving for omega, Initial residual = 3.83549e-05, Final residual = 6.96914e-06, No Iterations 3
smoothSolver:  Solving for k, Initial residual = 0.00765117, Final residual = 0.000553138, No Iterations 6
ExecutionTime = 0.182012 s  ClockTime = 0 s

Time = 78s

smoothSolver:  Solving for Ux, Initial residual = 0.00424963, Final residual = 0.000419137, No Iterations 5
smoothSolver:  Solving for Uy, Initial residual = 0.0604592, Final residual = 0.0042679, No Iterations 4
Pressure gradient source: uncorrected Ubar = 0.999985, pressure gradient = 0.00356198
GAMG:  Solving for p, Initial residual = 0.0282197, Final residual = 0.0025924, No Iterations 3
time step continuity errors : sum local = 7.63497e-07, global = 4.79745e-18, cumulative = -2.16288e-17
Pressure gradient source: uncorrected Ubar = 1, pressure gradient = 0.00309056
smoothSolver:  Solving for omega, Initial residual = 3.77749e-05, Final residual = 7.48854e-06, No Iterations 3
smoothSolver:  Solving for k, Initial residual = 0.00761986, Final residual = 0.000713495, No Iterations 5
ExecutionTime = 0.184041 s  ClockTime = 0 s

Time = 79s

smoothSolver:  Solving for Ux, Initial residual = 0.00420874, Final residual = 0.00041421, No Iterations 5
smoothSolver:  Solving for Uy, Initial residual = 0.0363965, Final residual = 0.00269989, No Iterations 4
Pressure gradient source: uncorrected Ubar = 0.999985, pressure gradient = 0.00357397
GAMG:  Solving for p, Initial residual = 0.0169687, Final residual = 0.00153694, No Iterations 5
time step continuity errors : sum local = 5.04838e-07, global = 4.36815e-18, cumulative = -1.72607e-17
Pressure gradient source: uncorrected Ubar = 1, pressure gradient = 0.00310059
smoothSolver:  Solving for omega, Initial residual = 3.7333e-05, Final residual = 7.64549e-06, No Iterations 3
smoothSolver:  Solving for k, Initial residual = 0.00781232, Final residual = 0.000520025, No Iterations 6
ExecutionTime = 0.186119 s  ClockTime = 0 s

Time = 80s

smoothSolver:  Solving for Ux, Initial residual = 0.00415334, Final residual = 0.000408592, No Iterations 5
smoothSolver:  Solving for Uy, Initial residual = 0.0521616, Final residual = 0.00397266, No Iterations 4
Pressure gradient source: uncorrected Ubar = 0.999985, pressure gradient = 0.00356613
GAMG:  Solving for p, Initial residual = 0.0239245, Final residual = 0.000847493, No Iterations 4
time step continuity errors : sum local = 2.72843e-07, global = -9.21625e-19, cumulative = -1.81823e-17
Pressure gradient source: uncorrected Ubar = 1, pressure gradient = 0.00310852
smoothSolver:  Solving for omega, Initial residual = 3.68085e-05, Final residual = 7.57491e-06, No Iterations 3
smoothSolver:  Solving for k, Initial residual = 0.00787043, Final residual = 0.000700498, No Iterations 5
ExecutionTime = 0.188117 s  ClockTime = 0 s

Time = 81s

smoothSolver:  Solving for Ux, Initial residual = 0.00408837, Final residual = 0.000401672, No Iterations 5
smoothSolver:  Solving for Uy, Initial residual = 0.0474964, Final residual = 0.00289778, No Iterations 4
Pressure gradient source: uncorrected Ubar = 0.999987, pressure gradient = 0.00353342
GAMG:  Solving for p, Initial residual = 0.0256706, Final residual = 0.00209477, No Iterations 3
time step continuity errors : sum local = 6.53967e-07, global = 2.22721e-18, cumulative = -1.59551e-17
Pressure gradient source: uncorrected Ubar = 1, pressure gradient = 0.00311075
smoothSolver:  Solving for omega, Initial residual = 3.60713e-05, Final residual = 7.09896e-06, No Iterations 3
smoothSolver:  Solving for k, Initial residual = 0.0080224, Final residual = 0.000693814, No Iterations 5
ExecutionTime = 0.190078 s  ClockTime = 0 s

Time = 82s

smoothSolver:  Solving for Ux, Initial residual = 0.00399452, Final residual = 0.000393656, No Iterations 5
smoothSolver:  Solving for Uy, Initial residual = 0.058971, Final residual = 0.00425667, No Iterations 4
Pressure gradient source: uncorrected Ubar = 0.999987, pressure gradient = 0.00352051
GAMG:  Solving for p, Initial residual = 0.0310744, Final residual = 0.00180801, No Iterations 4
time step continuity errors : sum local = 5.82839e-07, global = 3.74038e-19, cumulative = -1.55811e-17
Pressure gradient source: uncorrected Ubar = 1, pressure gradient = 0.0031112
smoothSolver:  Solving for omega, Initial residual = 3.52724e-05, Final residual = 7.0399e-06, No Iterations 3
smoothSolver:  Solving for k, Initial residual = 0.00847998, Final residual = 0.000584879, No Iterations 6
ExecutionTime = 0.192179 s  ClockTime = 0 s

Time = 83s

smoothSolver:  Solving for Ux, Initial residual = 0.00392504, Final residual = 0.000386236, No Iterations 5
smoothSolver:  Solving for Uy, Initial residual = 0.0808957, Final residual = 0.00534763, No Iterations 4
Pressure gradient source: uncorrected Ubar = 0.999986, pressure gradient = 0.00354202
GAMG:  Solving for p, Initial residual = 0.0273518, Final residual = 0.0015662, No Iterations 4
time step continuity errors : sum local = 5.4835e-07, global = 4.79113e-18, cumulative = -1.07899e-17
Pressure gradient source: uncorrected Ubar = 1, pressure gradient = 0.00311561
smoothSolver:  Solving for omega, Initial residual = 3.47122e-05, Final residual = 6.86294e-06, No Iterations 3
smoothSolver:  Solving for k, Initial residual = 0.00852137, Final residual = 0.000806178, No Iterations 5
ExecutionTime = 0.194223 s  ClockTime = 0 s

Time = 84s

smoothSolver:  Solving for Ux, Initial residual = 0.00386293, Final residual = 0.000379267, No Iterations 5
smoothSolver:  Solving for Uy, Initial residual = 0.0759084, Final residual = 0.00518636, No Iterations 4
Pressure gradient source: uncorrected Ubar = 0.999987, pressure gradient = 0.00353638
GAMG:  Solving for p, Initial residual = 0.0190405, Final residual = 0.00137496, No Iterations 4
time step continuity errors : sum local = 4.66444e-07, global = 3.27e-18, cumulative = -7.51992e-18
Pressure gradient source: uncorrected Ubar = 1, pressure gradient = 0.00311918
smoothSolver:  Solving for omega, Initial residual = 3.38987e-05, Final residual = 6.3871e-06, No Iterations 3
smoothSolver:  Solving for k, Initial residual = 0.00870338, Final residual = 0.000850744, No Iterations 5
ExecutionTime = 0.196247 s  ClockTime = 0 s

Time = 85s

smoothSolver:  Solving for Ux, Initial residual = 0.00380384, Final residual = 0.000372589, No Iterations 5
smoothSolver:  Solving for Uy, Initial residual = 0.0355977, Final residual = 0.0023787, No Iterations 4
Pressure gradient source: uncorrected Ubar = 0.999987, pressure gradient = 0.00354454
GAMG:  Solving for p, Initial residual = 0.0131168, Final residual = 0.00107809, No Iterations 15
time step continuity errors : sum local = 3.89127e-07, global = -2.84504e-19, cumulative = -7.80443e-18
Pressure gradient source: uncorrected Ubar = 1, pressure gradient = 0.00312425
smoothSolver:  Solving for omega, Initial residual = 3.38557e-05, Final residual = 7.63657e-06, No Iterations 3
smoothSolver:  Solving for k, Initial residual = 0.00909678, Final residual = 0.000649182, No Iterations 6
ExecutionTime = 0.198687 s  ClockTime = 0 s

Time = 86s

smoothSolver:  Solving for Ux, Initial residual = 0.00373445, Final residual = 0.000365011, No Iterations 5
smoothSolver:  Solving for Uy, Initial residual = 0.0302271, Final residual = 0.00208684, No Iterations 4
Pressure gradient source: uncorrected Ubar = 0.999988, pressure gradient = 0.00350969
GAMG:  Solving for p, Initial residual = 0.0137164, Final residual = 0.00105728, No Iterations 11
time step continuity errors : sum local = 3.89581e-07, global = 1.77113e-17, cumulative = 9.90692e-18
Pressure gradient source: uncorrected Ubar = 1, pressure gradient = 0.00312382
smoothSolver:  Solving for omega, Initial residual = 3.33069e-05, Final residual = 7.79099e-06, No Iterations 3
smoothSolver:  Solving for k, Initial residual = 0.00930135, Final residual = 0.000700666, No Iterations 6
ExecutionTime = 0.200962 s  ClockTime = 0 s

Time = 87s

smoothSolver:  Solving for Ux, Initial residual = 0.00367045, Final residual = 0.000357722, No Iterations 5
smoothSolver:  Solving for Uy, Initial residual = 0.0336816, Final residual = 0.00317543, No Iterations 3
Pressure gradient source: uncorrected Ubar = 0.999988, pressure gradient = 0.00351067
GAMG:  Solving for p, Initial residual = 0.0197794, Final residual = 0.0017124, No Iterations 4
time step continuity errors : sum local = 5.27997e-07, global = 1.09691e-18, cumulative = 1.10038e-17
Pressure gradient source: uncorrected Ubar = 1, pressure gradient = 0.00312434
smoothSolver:  Solving for omega, Initial residual = 3.18748e-05, Final residual = 9.97085e-06, No Iterations 2
smoothSolver:  Solving for k, Initial residual = 0.00924572, Final residual = 0.000871248, No Iterations 5
ExecutionTime = 0.202943 s  ClockTime = 0 s

Time = 88s

smoothSolver:  Solving for Ux, Initial residual = 0.00360547, Final residual = 0.000350504, No Iterations 5
smoothSolver:  Solving for Uy, Initial residual = 0.0731065, Final residual = 0.0052616, No Iterations 4
Pressure gradient source: uncorrected Ubar = 0.999987, pressure gradient = 0.00354384
GAMG:  Solving for p, Initial residual = 0.030854, Final residual = 0.00222785, No Iterations 4
time step continuity errors : sum local = 6.03503e-07, global = -1.09484e-17, cumulative = 5.54528e-20
Pressure gradient source: uncorrected Ubar = 1, pressure gradient = 0.00313096
smoothSolver:  Solving for omega, Initial residual = 3.2059e-05, Final residual = 9.60887e-06, No Iterations 2
smoothSolver:  Solving for k, Initial residual = 0.00956679, Final residual = 0.000617042, No Iterations 6
ExecutionTime = 0.204873 s  ClockTime = 0 s

Time = 89s

smoothSolver:  Solving for Ux, Initial residual = 0.00353781, Final residual = 0.00034295, No Iterations 5
smoothSolver:  Solving for Uy, Initial residual = 0.0394836, Final residual = 0.00298516, No Iterations 4
[...]
Pressure gradient source: uncorrected Ubar = 1, pressure gradient = 0.00343166
smoothSolver:  Solving for omega, Initial residual = 7.26927e-06, Final residual = 7.26927e-06, No Iterations 0
smoothSolver:  Solving for k, Initial residual = 8.01119e-05, Final residual = 7.41314e-06, No Iterations 5
ExecutionTime = 0.983533 s  ClockTime = 1 s

Time = 459s

smoothSolver:  Solving for Ux, Initial residual = 9.1516e-06, Final residual = 9.1516e-06, No Iterations 0
smoothSolver:  Solving for Uy, Initial residual = 0.0152862, Final residual = 0.00112368, No Iterations 3
Pressure gradient source: uncorrected Ubar = 1, pressure gradient = 0.00343166
GAMG:  Solving for p, Initial residual = 0.00335696, Final residual = 0.000335319, No Iterations 3
time step continuity errors : sum local = 3.38067e-09, global = 6.4783e-18, cumulative = -1.36932e-16
Pressure gradient source: uncorrected Ubar = 1, pressure gradient = 0.00343159
smoothSolver:  Solving for omega, Initial residual = 7.25381e-06, Final residual = 7.25381e-06, No Iterations 0
smoothSolver:  Solving for k, Initial residual = 7.78085e-05, Final residual = 6.71932e-06, No Iterations 5
ExecutionTime = 0.985459 s  ClockTime = 1 s

Time = 460s

smoothSolver:  Solving for Ux, Initial residual = 9.38635e-06, Final residual = 9.38635e-06, No Iterations 0
smoothSolver:  Solving for Uy, Initial residual = 0.0148295, Final residual = 0.00142397, No Iterations 3
Pressure gradient source: uncorrected Ubar = 1, pressure gradient = 0.00343159
GAMG:  Solving for p, Initial residual = 0.00257487, Final residual = 0.000215636, No Iterations 6
time step continuity errors : sum local = 2.17375e-09, global = 1.91156e-18, cumulative = -1.35021e-16
Pressure gradient source: uncorrected Ubar = 1, pressure gradient = 0.00343151
smoothSolver:  Solving for omega, Initial residual = 7.23795e-06, Final residual = 7.23795e-06, No Iterations 0
smoothSolver:  Solving for k, Initial residual = 7.74755e-05, Final residual = 6.36133e-06, No Iterations 5
ExecutionTime = 0.987462 s  ClockTime = 1 s

Time = 461s

smoothSolver:  Solving for Ux, Initial residual = 9.60469e-06, Final residual = 9.60469e-06, No Iterations 0
smoothSolver:  Solving for Uy, Initial residual = 0.0153436, Final residual = 0.00100306, No Iterations 3
Pressure gradient source: uncorrected Ubar = 1, pressure gradient = 0.00343151
GAMG:  Solving for p, Initial residual = 0.00292962, Final residual = 0.000211644, No Iterations 3
time step continuity errors : sum local = 2.0827e-09, global = 6.95732e-18, cumulative = -1.28063e-16
Pressure gradient source: uncorrected Ubar = 1, pressure gradient = 0.00343144
smoothSolver:  Solving for omega, Initial residual = 7.22159e-06, Final residual = 7.22159e-06, No Iterations 0
smoothSolver:  Solving for k, Initial residual = 7.76305e-05, Final residual = 6.40812e-06, No Iterations 5
ExecutionTime = 0.989404 s  ClockTime = 1 s

Time = 462s

smoothSolver:  Solving for Ux, Initial residual = 9.83137e-06, Final residual = 9.83137e-06, No Iterations 0
smoothSolver:  Solving for Uy, Initial residual = 0.0154292, Final residual = 0.00145615, No Iterations 3
Pressure gradient source: uncorrected Ubar = 1, pressure gradient = 0.00343144
GAMG:  Solving for p, Initial residual = 0.00317943, Final residual = 0.000275543, No Iterations 4
time step continuity errors : sum local = 2.721e-09, global = 1.00975e-18, cumulative = -1.27053e-16
Pressure gradient source: uncorrected Ubar = 1, pressure gradient = 0.00343138
smoothSolver:  Solving for omega, Initial residual = 7.20495e-06, Final residual = 7.20495e-06, No Iterations 0
smoothSolver:  Solving for k, Initial residual = 7.66677e-05, Final residual = 7.04012e-06, No Iterations 5
ExecutionTime = 0.991288 s  ClockTime = 1 s

Time = 463s

smoothSolver:  Solving for Ux, Initial residual = 1.00584e-05, Final residual = 6.37838e-06, No Iterations 1
smoothSolver:  Solving for Uy, Initial residual = 0.0123578, Final residual = 0.000813526, No Iterations 3
Pressure gradient source: uncorrected Ubar = 1, pressure gradient = 0.00343184
GAMG:  Solving for p, Initial residual = 0.0140977, Final residual = 0.00104248, No Iterations 16
time step continuity errors : sum local = 1.11274e-08, global = -3.37791e-18, cumulative = -1.30431e-16
Pressure gradient source: uncorrected Ubar = 1, pressure gradient = 0.00343139
smoothSolver:  Solving for omega, Initial residual = 7.14165e-06, Final residual = 7.14165e-06, No Iterations 0
smoothSolver:  Solving for k, Initial residual = 7.53692e-05, Final residual = 7.44193e-06, No Iterations 5
ExecutionTime = 0.993658 s  ClockTime = 1 s

Time = 464s

smoothSolver:  Solving for Ux, Initial residual = 1.02558e-05, Final residual = 6.46646e-06, No Iterations 1
smoothSolver:  Solving for Uy, Initial residual = 0.0778077, Final residual = 0.00470892, No Iterations 4
Pressure gradient source: uncorrected Ubar = 1, pressure gradient = 0.00343124
GAMG:  Solving for p, Initial residual = 0.0124167, Final residual = 0.000999391, No Iterations 16
time step continuity errors : sum local = 1.00328e-08, global = 1.5615e-18, cumulative = -1.2887e-16
Pressure gradient source: uncorrected Ubar = 1, pressure gradient = 0.00343122
smoothSolver:  Solving for omega, Initial residual = 7.07825e-06, Final residual = 7.07825e-06, No Iterations 0
smoothSolver:  Solving for k, Initial residual = 7.54665e-05, Final residual = 7.97303e-06, No Iterations 5
ExecutionTime = 0.996199 s  ClockTime = 1 s

Time = 465s

smoothSolver:  Solving for Ux, Initial residual = 1.03373e-05, Final residual = 6.48307e-06, No Iterations 1
smoothSolver:  Solving for Uy, Initial residual = 0.094573, Final residual = 0.0058527, No Iterations 4
Pressure gradient source: uncorrected Ubar = 1, pressure gradient = 0.00343103
GAMG:  Solving for p, Initial residual = 0.0105394, Final residual = 0.00103666, No Iterations 12
time step continuity errors : sum local = 1.15049e-08, global = 2.47598e-19, cumulative = -1.28622e-16
Pressure gradient source: uncorrected Ubar = 1, pressure gradient = 0.00343106
smoothSolver:  Solving for omega, Initial residual = 7.01568e-06, Final residual = 7.01568e-06, No Iterations 0
smoothSolver:  Solving for k, Initial residual = 7.24787e-05, Final residual = 6.37118e-06, No Iterations 5
ExecutionTime = 0.998636 s  ClockTime = 1 s

Time = 466s

smoothSolver:  Solving for Ux, Initial residual = 1.04341e-05, Final residual = 6.52681e-06, No Iterations 1
smoothSolver:  Solving for Uy, Initial residual = 0.0980445, Final residual = 0.00576443, No Iterations 4
Pressure gradient source: uncorrected Ubar = 1, pressure gradient = 0.00343083
GAMG:  Solving for p, Initial residual = 0.00908159, Final residual = 0.000642622, No Iterations 17
time step continuity errors : sum local = 7.27514e-09, global = -2.98658e-18, cumulative = -1.31609e-16
Pressure gradient source: uncorrected Ubar = 1, pressure gradient = 0.0034309
smoothSolver:  Solving for omega, Initial residual = 6.95461e-06, Final residual = 6.95461e-06, No Iterations 0
smoothSolver:  Solving for k, Initial residual = 6.74495e-05, Final residual = 8.7315e-06, No Iterations 4
ExecutionTime = 1.00101 s  ClockTime = 1 s

Time = 467s

smoothSolver:  Solving for Ux, Initial residual = 1.05226e-05, Final residual = 6.56414e-06, No Iterations 1
smoothSolver:  Solving for Uy, Initial residual = 0.09359, Final residual = 0.00485573, No Iterations 4
Pressure gradient source: uncorrected Ubar = 1, pressure gradient = 0.00343066
GAMG:  Solving for p, Initial residual = 0.00667399, Final residual = 0.000636722, No Iterations 17
time step continuity errors : sum local = 8.63349e-09, global = 4.83535e-18, cumulative = -1.26774e-16
Pressure gradient source: uncorrected Ubar = 1, pressure gradient = 0.00343076
smoothSolver:  Solving for omega, Initial residual = 6.89562e-06, Final residual = 6.89562e-06, No Iterations 0
smoothSolver:  Solving for k, Initial residual = 7.25088e-05, Final residual = 8.30724e-06, No Iterations 5
ExecutionTime = 1.00335 s  ClockTime = 1 s

Time = 468s

smoothSolver:  Solving for Ux, Initial residual = 1.06465e-05, Final residual = 6.62081e-06, No Iterations 1
smoothSolver:  Solving for Uy, Initial residual = 0.0727586, Final residual = 0.0040206, No Iterations 4
Pressure gradient source: uncorrected Ubar = 1, pressure gradient = 0.00343048
GAMG:  Solving for p, Initial residual = 0.00686443, Final residual = 0.000610135, No Iterations 19
time step continuity errors : sum local = 6.70197e-09, global = -1.49227e-18, cumulative = -1.28266e-16
Pressure gradient source: uncorrected Ubar = 1, pressure gradient = 0.0034306
smoothSolver:  Solving for omega, Initial residual = 6.8386e-06, Final residual = 6.8386e-06, No Iterations 0
smoothSolver:  Solving for k, Initial residual = 6.65636e-05, Final residual = 8.68986e-06, No Iterations 4
ExecutionTime = 1.00576 s  ClockTime = 1 s

Time = 469s

smoothSolver:  Solving for Ux, Initial residual = 1.07404e-05, Final residual = 6.67646e-06, No Iterations 1
smoothSolver:  Solving for Uy, Initial residual = 0.0520929, Final residual = 0.00332204, No Iterations 4
Pressure gradient source: uncorrected Ubar = 1, pressure gradient = 0.00343033
GAMG:  Solving for p, Initial residual = 0.00490261, Final residual = 0.000447306, No Iterations 18
time step continuity errors : sum local = 5.41835e-09, global = 3.58026e-18, cumulative = -1.24686e-16
Pressure gradient source: uncorrected Ubar = 1, pressure gradient = 0.00343046
smoothSolver:  Solving for omega, Initial residual = 6.78356e-06, Final residual = 6.78356e-06, No Iterations 0
smoothSolver:  Solving for k, Initial residual = 6.53946e-05, Final residual = 9.29187e-06, No Iterations 4
ExecutionTime = 1.00805 s  ClockTime = 1 s

Time = 470s

smoothSolver:  Solving for Ux, Initial residual = 1.08675e-05, Final residual = 6.74531e-06, No Iterations 1
smoothSolver:  Solving for Uy, Initial residual = 0.0360891, Final residual = 0.00226886, No Iterations 4
Pressure gradient source: uncorrected Ubar = 1, pressure gradient = 0.00343017
GAMG:  Solving for p, Initial residual = 0.00568404, Final residual = 0.000517541, No Iterations 16
time step continuity errors : sum local = 5.57421e-09, global = 2.71248e-18, cumulative = -1.21973e-16
Pressure gradient source: uncorrected Ubar = 1, pressure gradient = 0.00343032
smoothSolver:  Solving for omega, Initial residual = 6.73062e-06, Final residual = 6.73062e-06, No Iterations 0
smoothSolver:  Solving for k, Initial residual = 6.6081e-05, Final residual = 9.83271e-06, No Iterations 4
ExecutionTime = 1.01039 s  ClockTime = 1 s

Time = 471s

smoothSolver:  Solving for Ux, Initial residual = 1.09814e-05, Final residual = 6.81507e-06, No Iterations 1
smoothSolver:  Solving for Uy, Initial residual = 0.0306084, Final residual = 0.0017391, No Iterations 4
Pressure gradient source: uncorrected Ubar = 1, pressure gradient = 0.00343004
GAMG:  Solving for p, Initial residual = 0.00583271, Final residual = 0.00049852, No Iterations 16
time step continuity errors : sum local = 5.35007e-09, global = 8.19215e-19, cumulative = -1.21154e-16
Pressure gradient source: uncorrected Ubar = 1, pressure gradient = 0.00343019
smoothSolver:  Solving for omega, Initial residual = 6.67993e-06, Final residual = 6.67993e-06, No Iterations 0
smoothSolver:  Solving for k, Initial residual = 6.30053e-05, Final residual = 8.42989e-06, No Iterations 4
ExecutionTime = 1.0129 s  ClockTime = 1 s

Time = 472s

smoothSolver:  Solving for Ux, Initial residual = 1.11279e-05, Final residual = 6.90455e-06, No Iterations 1
smoothSolver:  Solving for Uy, Initial residual = 0.0186789, Final residual = 0.000931391, No Iterations 4
Pressure gradient source: uncorrected Ubar = 1, pressure gradient = 0.0034299
GAMG:  Solving for p, Initial residual = 0.0063687, Final residual = 0.000478017, No Iterations 9
time step continuity errors : sum local = 4.77543e-09, global = 1.0411e-17, cumulative = -1.10743e-16
Pressure gradient source: uncorrected Ubar = 1, pressure gradient = 0.00343006
smoothSolver:  Solving for omega, Initial residual = 6.63129e-06, Final residual = 6.63129e-06, No Iterations 0
smoothSolver:  Solving for k, Initial residual = 6.17744e-05, Final residual = 8.65543e-06, No Iterations 4
ExecutionTime = 1.01521 s  ClockTime = 1 s

Time = 473s

smoothSolver:  Solving for Ux, Initial residual = 1.12656e-05, Final residual = 6.98941e-06, No Iterations 1
smoothSolver:  Solving for Uy, Initial residual = 0.0178268, Final residual = 0.00176176, No Iterations 3
Pressure gradient source: uncorrected Ubar = 1, pressure gradient = 0.00342977
GAMG:  Solving for p, Initial residual = 0.00503091, Final residual = 0.00046721, No Iterations 5
time step continuity errors : sum local = 4.55725e-09, global = -8.7379e-18, cumulative = -1.19481e-16
Pressure gradient source: uncorrected Ubar = 1, pressure gradient = 0.00342993
smoothSolver:  Solving for omega, Initial residual = 6.58454e-06, Final residual = 6.58454e-06, No Iterations 0
smoothSolver:  Solving for k, Initial residual = 6.23793e-05, Final residual = 8.95676e-06, No Iterations 4
ExecutionTime = 1.01725 s  ClockTime = 1 s

Time = 474s

smoothSolver:  Solving for Ux, Initial residual = 1.1438e-05, Final residual = 7.09312e-06, No Iterations 1
smoothSolver:  Solving for Uy, Initial residual = 0.0167606, Final residual = 0.00092522, No Iterations 4
Pressure gradient source: uncorrected Ubar = 1, pressure gradient = 0.00342968
GAMG:  Solving for p, Initial residual = 0.00440031, Final residual = 0.000417916, No Iterations 6
time step continuity errors : sum local = 3.72491e-09, global = -6.02485e-18, cumulative = -1.25506e-16
Pressure gradient source: uncorrected Ubar = 1, pressure gradient = 0.00342982
smoothSolver:  Solving for omega, Initial residual = 6.53944e-06, Final residual = 6.53944e-06, No Iterations 0
smoothSolver:  Solving for k, Initial residual = 5.98175e-05, Final residual = 8.03234e-06, No Iterations 4
ExecutionTime = 1.01924 s  ClockTime = 1 s

Time = 475s

smoothSolver:  Solving for Ux, Initial residual = 1.16094e-05, Final residual = 7.1936e-06, No Iterations 1
smoothSolver:  Solving for Uy, Initial residual = 0.0162457, Final residual = 0.00078246, No Iterations 4
Pressure gradient source: uncorrected Ubar = 1, pressure gradient = 0.00342954
GAMG:  Solving for p, Initial residual = 0.00416984, Final residual = 0.000303282, No Iterations 3
time step continuity errors : sum local = 2.90119e-09, global = -6.91687e-18, cumulative = -1.32422e-16
Pressure gradient source: uncorrected Ubar = 1, pressure gradient = 0.0034297
smoothSolver:  Solving for omega, Initial residual = 6.49634e-06, Final residual = 6.49634e-06, No Iterations 0
smoothSolver:  Solving for k, Initial residual = 5.8687e-05, Final residual = 8.93014e-06, No Iterations 4
ExecutionTime = 1.02112 s  ClockTime = 1 s

Time = 476s

smoothSolver:  Solving for Ux, Initial residual = 1.1801e-05, Final residual = 7.30842e-06, No Iterations 1
smoothSolver:  Solving for Uy, Initial residual = 0.016798, Final residual = 0.00165596, No Iterations 3
Pressure gradient source: uncorrected Ubar = 1, pressure gradient = 0.00342941
GAMG:  Solving for p, Initial residual = 0.00274304, Final residual = 0.000268613, No Iterations 8
time step continuity errors : sum local = 2.9207e-09, global = -4.12211e-18, cumulative = -1.36545e-16
Pressure gradient source: uncorrected Ubar = 1, pressure gradient = 0.00342958
smoothSolver:  Solving for omega, Initial residual = 6.45465e-06, Final residual = 6.45465e-06, No Iterations 0
smoothSolver:  Solving for k, Initial residual = 5.80109e-05, Final residual = 8.12971e-06, No Iterations 4
ExecutionTime = 1.02315 s  ClockTime = 1 s

Time = 477s

smoothSolver:  Solving for Ux, Initial residual = 1.19699e-05, Final residual = 7.40398e-06, No Iterations 1
smoothSolver:  Solving for Uy, Initial residual = 0.0152243, Final residual = 0.00143739, No Iterations 3
Pressure gradient source: uncorrected Ubar = 1, pressure gradient = 0.00342934
GAMG:  Solving for p, Initial residual = 0.00405445, Final residual = 0.000276306, No Iterations 4
time step continuity errors : sum local = 2.52444e-09, global = 5.26024e-18, cumulative = -1.31284e-16
Pressure gradient source: uncorrected Ubar = 1, pressure gradient = 0.00342948
smoothSolver:  Solving for omega, Initial residual = 6.4143e-06, Final residual = 6.4143e-06, No Iterations 0
smoothSolver:  Solving for k, Initial residual = 5.57926e-05, Final residual = 7.17606e-06, No Iterations 4
ExecutionTime = 1.02511 s  ClockTime = 1 s

Time = 478s

smoothSolver:  Solving for Ux, Initial residual = 1.2157e-05, Final residual = 7.51501e-06, No Iterations 1
smoothSolver:  Solving for Uy, Initial residual = 0.0145148, Final residual = 0.000906215, No Iterations 4
Pressure gradient source: uncorrected Ubar = 1, pressure gradient = 0.00342923
GAMG:  Solving for p, Initial residual = 0.00296796, Final residual = 0.000218285, No Iterations 14
time step continuity errors : sum local = 2.19826e-09, global = 8.32723e-18, cumulative = -1.22957e-16
Pressure gradient source: uncorrected Ubar = 1, pressure gradient = 0.00342938
smoothSolver:  Solving for omega, Initial residual = 6.37514e-06, Final residual = 6.37514e-06, No Iterations 0
smoothSolver:  Solving for k, Initial residual = 5.51673e-05, Final residual = 8.10508e-06, No Iterations 4
ExecutionTime = 1.02771 s  ClockTime = 1 s

Time = 479s

smoothSolver:  Solving for Ux, Initial residual = 1.23292e-05, Final residual = 7.61801e-06, No Iterations 1
smoothSolver:  Solving for Uy, Initial residual = 0.0106317, Final residual = 0.00064256, No Iterations 4
Pressure gradient source: uncorrected Ubar = 1, pressure gradient = 0.00342911
GAMG:  Solving for p, Initial residual = 0.00284427, Final residual = 0.000241908, No Iterations 12
time step continuity errors : sum local = 2.4799e-09, global = 3.37169e-18, cumulative = -1.19585e-16
Pressure gradient source: uncorrected Ubar = 1, pressure gradient = 0.00342927
smoothSolver:  Solving for omega, Initial residual = 6.33731e-06, Final residual = 6.33731e-06, No Iterations 0
smoothSolver:  Solving for k, Initial residual = 5.48632e-05, Final residual = 7.90945e-06, No Iterations 4
ExecutionTime = 1.0304 s  ClockTime = 1 s

Time = 480s

smoothSolver:  Solving for Ux, Initial residual = 1.25036e-05, Final residual = 7.71607e-06, No Iterations 1
smoothSolver:  Solving for Uy, Initial residual = 0.012688, Final residual = 0.000643647, No Iterations 4
Pressure gradient source: uncorrected Ubar = 1, pressure gradient = 0.00342905
GAMG:  Solving for p, Initial residual = 0.00377545, Final residual = 0.00034037, No Iterations 7
time step continuity errors : sum local = 3.40058e-09, global = -8.38231e-18, cumulative = -1.27968e-16
Pressure gradient source: uncorrected Ubar = 1, pressure gradient = 0.00342918
smoothSolver:  Solving for omega, Initial residual = 6.30057e-06, Final residual = 6.30057e-06, No Iterations 0
smoothSolver:  Solving for k, Initial residual = 5.29662e-05, Final residual = 7.6143e-06, No Iterations 4
ExecutionTime = 1.03258 s  ClockTime = 1 s

Time = 481s

smoothSolver:  Solving for Ux, Initial residual = 1.26623e-05, Final residual = 7.81025e-06, No Iterations 1
smoothSolver:  Solving for Uy, Initial residual = 0.00935183, Final residual = 0.000479736, No Iterations 4
Pressure gradient source: uncorrected Ubar = 1, pressure gradient = 0.00342892
GAMG:  Solving for p, Initial residual = 0.00265289, Final residual = 0.000214171, No Iterations 11
time step continuity errors : sum local = 1.97757e-09, global = -4.00363e-18, cumulative = -1.31971e-16
Pressure gradient source: uncorrected Ubar = 1, pressure gradient = 0.00342909
smoothSolver:  Solving for omega, Initial residual = 6.2651e-06, Final residual = 6.2651e-06, No Iterations 0
smoothSolver:  Solving for k, Initial residual = 5.25052e-05, Final residual = 8.61024e-06, No Iterations 4
ExecutionTime = 1.0348 s  ClockTime = 1 s


SIMPLE solution converged in 481 iterations

End

