/*---------------------------------------------------------------------------*\
  =========                 |
  \\      /  F ield         | OpenFOAM: The Open Source CFD Toolbox
   \\    /   O peration     | Website:  https://openfoam.org
    \\  /    A nd           | Version:  10
     \\/     M anipulation  |
\*---------------------------------------------------------------------------*/
Build  : 10-e450dce21ea5
Exec   : blockMesh
Date   : Jan 16 2023
Time   : 11:42:52
Host   : "w530-R9YK46P"
PID    : 14252
I/O    : uncollated
Case   : /home/jdmezazeron/gitDanielMezaZ/turbulenceVisualized/Data/SimulationFiles/E11_Re934
nProcs : 1
sigFpe : Enabling floating point exception trapping (FOAM_SIGFPE).
fileModificationChecking : Monitoring run-time modified files using timeStampMaster (fileModificationSkew 10)
allowSystemOperations : Allowing user-supplied system call operations

// * * * * * * * * * * * * * * * * * * * * * * * * * * * * * * * * * * * * * //
Create time

Reading "blockMeshDict"

Creating block mesh from
    "system/blockMeshDict"
Creating block edges
No non-planar block faces defined
Creating topology blocks
Creating topology patches

Creating block mesh topology

Check topology

	Basic statistics
		Number of internal faces : 0
		Number of boundary faces : 6
		Number of defined boundary faces : 6
		Number of undefined boundary faces : 0
	Checking patch -> block consistency

Creating block offsets
Creating merge list .

Creating polyMesh from blockMesh
Creating patches
Creating cells
Creating points with scale 1
    Block 0 cell size :
        i : 0.5
        j : 0.00921276 .. 0.036851
        k : 2

Detected cyclic patches; ordering boundary faces

Writing polyMesh
----------------
Mesh Information
----------------
  boundingBox: (-1 0 -1) (1 1 1)
  nPoints: 510
  nCells: 200
  nFaces: 854
  nInternalFaces: 346
----------------
Patches
----------------
  patch 0 (start: 346 size: 50) name: inlet
  patch 1 (start: 396 size: 50) name: outlet
  patch 2 (start: 446 size: 4) name: fixedWalls-bottom
  patch 3 (start: 450 size: 4) name: fixedWalls-top
  patch 4 (start: 454 size: 400) name: frontAndBack

End

/*---------------------------------------------------------------------------*\
  =========                 |
  \\      /  F ield         | OpenFOAM: The Open Source CFD Toolbox
   \\    /   O peration     | Website:  https://openfoam.org
    \\  /    A nd           | Version:  10
     \\/     M anipulation  |
\*---------------------------------------------------------------------------*/
Build  : 10-e450dce21ea5
Exec   : simpleFoam
Date   : Jan 16 2023
Time   : 11:42:52
Host   : "w530-R9YK46P"
PID    : 14253
I/O    : uncollated
Case   : /home/jdmezazeron/gitDanielMezaZ/turbulenceVisualized/Data/SimulationFiles/E11_Re934
nProcs : 1
sigFpe : Enabling floating point exception trapping (FOAM_SIGFPE).
fileModificationChecking : Monitoring run-time modified files using timeStampMaster (fileModificationSkew 10)
allowSystemOperations : Allowing user-supplied system call operations

// * * * * * * * * * * * * * * * * * * * * * * * * * * * * * * * * * * * * * //
Create time

Create mesh for time = 0


SIMPLE: Convergence criteria found
        U: tolerance 0.01
        p: tolerance 0.01
        omega: tolerance 0.0001

Reading field p

Reading field U

Reading/calculating face flux field phi

Selecting viscosity model Newtonian
Selecting turbulence model type RAS
Selecting RAS turbulence model kOmegaSST
Selecting patchDistMethod meshWave
RAS
{
    RASModel        kOmegaSST;
    turbulence      on;
    printCoeffs     on;
    alphaK1         0.85;
    alphaK2         1;
    alphaOmega1     0.5;
    alphaOmega2     0.856;
    gamma1          0.555556;
    gamma2          0.44;
    beta1           0.075;
    beta2           0.0828;
    betaStar        0.09;
    a1              0.31;
    b1              1;
    c1              10;
    F3              false;
}

No MRF models present

--> FOAM Warning : Creating fvModels from "system/fvOptions" rather than constant/fvModels
No fvModels present
--> FOAM Warning : Creating fvConstraints from "system/fvOptions"

Selecting finite volume constraint type meanVelocityForce
    Name: momentumSource
    - selecting all cells
    - selected 200 cell(s) with volume 4
    Initial pressure gradient = 0


Starting time loop

turbulenceFields stressComponents: storing fields:
    R

Time = 1s

smoothSolver:  Solving for Ux, Initial residual = 0, Final residual = 0, No Iterations 0
smoothSolver:  Solving for Uy, Initial residual = 0, Final residual = 0, No Iterations 0
Pressure gradient source: uncorrected Ubar = 0, pressure gradient = 8.89251
GAMG:  Solving for p, Initial residual = 0.999989, Final residual = 0.0590566, No Iterations 3
time step continuity errors : sum local = 5.99033e-17, global = -5.15536e-18, cumulative = -5.15536e-18
Pressure gradient source: uncorrected Ubar = 0.869364, pressure gradient = 1.16168
smoothSolver:  Solving for omega, Initial residual = 0.0224761, Final residual = 0.000830362, No Iterations 2
smoothSolver:  Solving for k, Initial residual = 1, Final residual = 0.0468901, No Iterations 1
ExecutionTime = 0.013447 s  ClockTime = 0 s

Time = 2s

smoothSolver:  Solving for Ux, Initial residual = 0.356555, Final residual = 0.0320614, No Iterations 6
smoothSolver:  Solving for Uy, Initial residual = 1, Final residual = 0.0663969, No Iterations 2
Pressure gradient source: uncorrected Ubar = 1.64019, pressure gradient = -8.00636
GAMG:  Solving for p, Initial residual = 1, Final residual = 0.0611432, No Iterations 5
time step continuity errors : sum local = 0.000550018, global = -1.22481e-18, cumulative = -6.38017e-18
Pressure gradient source: uncorrected Ubar = 1.08567, pressure gradient = -0.0651405
smoothSolver:  Solving for omega, Initial residual = 0.120524, Final residual = 0.000635395, No Iterations 1
smoothSolver:  Solving for k, Initial residual = 0.159039, Final residual = 0.0150401, No Iterations 2
ExecutionTime = 0.015544 s  ClockTime = 0 s

Time = 3s

smoothSolver:  Solving for Ux, Initial residual = 0.058288, Final residual = 0.00515641, No Iterations 5
smoothSolver:  Solving for Uy, Initial residual = 0.446914, Final residual = 0.0196981, No Iterations 3
Pressure gradient source: uncorrected Ubar = 0.947833, pressure gradient = 0.731693
GAMG:  Solving for p, Initial residual = 0.220732, Final residual = 0.0176422, No Iterations 5
time step continuity errors : sum local = 0.000353805, global = -9.60535e-18, cumulative = -1.59855e-17
Pressure gradient source: uncorrected Ubar = 0.992688, pressure gradient = 0.0465455
smoothSolver:  Solving for omega, Initial residual = 0.00908311, Final residual = 0.000261623, No Iterations 1
smoothSolver:  Solving for k, Initial residual = 0.055736, Final residual = 0.00419738, No Iterations 3
ExecutionTime = 0.017539 s  ClockTime = 0 s

Time = 4s

smoothSolver:  Solving for Ux, Initial residual = 0.0338326, Final residual = 0.00227882, No Iterations 5
smoothSolver:  Solving for Uy, Initial residual = 0.409478, Final residual = 0.0214087, No Iterations 3
Pressure gradient source: uncorrected Ubar = 1.00731, pressure gradient = -0.064345
GAMG:  Solving for p, Initial residual = 0.157362, Final residual = 0.013489, No Iterations 5
time step continuity errors : sum local = 0.000253668, global = -2.29038e-18, cumulative = -1.82759e-17
Pressure gradient source: uncorrected Ubar = 1.00096, pressure gradient = 0.0319877
smoothSolver:  Solving for omega, Initial residual = 0.00882281, Final residual = 0.000181407, No Iterations 1
smoothSolver:  Solving for k, Initial residual = 0.0304859, Final residual = 0.00286577, No Iterations 3
ExecutionTime = 0.019693 s  ClockTime = 0 s

Time = 5s

smoothSolver:  Solving for Ux, Initial residual = 0.0235567, Final residual = 0.00164368, No Iterations 5
smoothSolver:  Solving for Uy, Initial residual = 0.262362, Final residual = 0.0153326, No Iterations 3
Pressure gradient source: uncorrected Ubar = 1.00278, pressure gradient = -0.0105472
GAMG:  Solving for p, Initial residual = 0.1022, Final residual = 0.00594426, No Iterations 4
time step continuity errors : sum local = 8.65966e-05, global = -5.85649e-18, cumulative = -2.41324e-17
Pressure gradient source: uncorrected Ubar = 1.00035, pressure gradient = 0.0266907
smoothSolver:  Solving for omega, Initial residual = 0.00351097, Final residual = 0.000113167, No Iterations 1
smoothSolver:  Solving for k, Initial residual = 0.0225418, Final residual = 0.00123329, No Iterations 4
ExecutionTime = 0.021762 s  ClockTime = 0 s

Time = 6s

smoothSolver:  Solving for Ux, Initial residual = 0.0179176, Final residual = 0.00130398, No Iterations 5
smoothSolver:  Solving for Uy, Initial residual = 0.304559, Final residual = 0.0181967, No Iterations 3
Pressure gradient source: uncorrected Ubar = 1.00226, pressure gradient = -0.00803349
GAMG:  Solving for p, Initial residual = 0.0757885, Final residual = 0.00723319, No Iterations 5
time step continuity errors : sum local = 9.17572e-05, global = 8.95062e-18, cumulative = -1.51818e-17
Pressure gradient source: uncorrected Ubar = 1.00028, pressure gradient = 0.0224408
smoothSolver:  Solving for omega, Initial residual = 0.00236551, Final residual = 7.3817e-05, No Iterations 1
smoothSolver:  Solving for k, Initial residual = 0.018714, Final residual = 0.00123579, No Iterations 4
ExecutionTime = 0.024247 s  ClockTime = 0 s

Time = 7s

smoothSolver:  Solving for Ux, Initial residual = 0.0141463, Final residual = 0.00105728, No Iterations 5
smoothSolver:  Solving for Uy, Initial residual = 0.543133, Final residual = 0.0263026, No Iterations 3
Pressure gradient source: uncorrected Ubar = 1.00173, pressure gradient = -0.0042241
GAMG:  Solving for p, Initial residual = 0.103028, Final residual = 0.00555158, No Iterations 4
time step continuity errors : sum local = 6.53165e-05, global = -5.41762e-18, cumulative = -2.05994e-17
Pressure gradient source: uncorrected Ubar = 1.00021, pressure gradient = 0.0192492
smoothSolver:  Solving for omega, Initial residual = 0.00119758, Final residual = 4.56875e-05, No Iterations 1
smoothSolver:  Solving for k, Initial residual = 0.0162443, Final residual = 0.00130359, No Iterations 4
ExecutionTime = 0.026502 s  ClockTime = 0 s

Time = 8s

smoothSolver:  Solving for Ux, Initial residual = 0.0113377, Final residual = 0.000877366, No Iterations 5
smoothSolver:  Solving for Uy, Initial residual = 0.826759, Final residual = 0.0355239, No Iterations 3
Pressure gradient source: uncorrected Ubar = 1.00143, pressure gradient = -0.00271353
GAMG:  Solving for p, Initial residual = 0.1108, Final residual = 0.00830647, No Iterations 4
time step continuity errors : sum local = 8.15202e-05, global = 5.33591e-19, cumulative = -2.00658e-17
Pressure gradient source: uncorrected Ubar = 1.00017, pressure gradient = 0.0166447
smoothSolver:  Solving for omega, Initial residual = 0.000712794, Final residual = 3.11124e-05, No Iterations 1
smoothSolver:  Solving for k, Initial residual = 0.0145973, Final residual = 0.000871002, No Iterations 4
ExecutionTime = 0.028536 s  ClockTime = 0 s

Time = 9s

smoothSolver:  Solving for Ux, Initial residual = 0.00942716, Final residual = 0.000748418, No Iterations 5
smoothSolver:  Solving for Uy, Initial residual = 0.951774, Final residual = 0.042016, No Iterations 3
Pressure gradient source: uncorrected Ubar = 1.00095, pressure gradient = 0.0020421
GAMG:  Solving for p, Initial residual = 0.118976, Final residual = 0.0116464, No Iterations 5
time step continuity errors : sum local = 9.43959e-05, global = 2.30393e-19, cumulative = -1.98354e-17
Pressure gradient source: uncorrected Ubar = 1.00011, pressure gradient = 0.0149828
smoothSolver:  Solving for omega, Initial residual = 0.000391648, Final residual = 2.11118e-05, No Iterations 1
smoothSolver:  Solving for k, Initial residual = 0.0132021, Final residual = 0.000689852, No Iterations 4
ExecutionTime = 0.030529 s  ClockTime = 0 s

Time = 10s

smoothSolver:  Solving for Ux, Initial residual = 0.00801091, Final residual = 0.00065202, No Iterations 5
smoothSolver:  Solving for Uy, Initial residual = 0.949947, Final residual = 0.0406619, No Iterations 3
Pressure gradient source: uncorrected Ubar = 1.00076, pressure gradient = 0.00325754
GAMG:  Solving for p, Initial residual = 0.123175, Final residual = 0.0109668, No Iterations 5
time step continuity errors : sum local = 7.43295e-05, global = 6.32903e-18, cumulative = -1.35064e-17
Pressure gradient source: uncorrected Ubar = 1.00009, pressure gradient = 0.0136658
smoothSolver:  Solving for omega, Initial residual = 0.000226324, Final residual = 1.46295e-05, No Iterations 1
smoothSolver:  Solving for k, Initial residual = 0.0122845, Final residual = 0.000728295, No Iterations 5
ExecutionTime = 0.032535 s  ClockTime = 0 s

Time = 11s

smoothSolver:  Solving for Ux, Initial residual = 0.00684404, Final residual = 0.000574809, No Iterations 5
smoothSolver:  Solving for Uy, Initial residual = 0.877015, Final residual = 0.0370649, No Iterations 3
Pressure gradient source: uncorrected Ubar = 1.00075, pressure gradient = 0.00227479
GAMG:  Solving for p, Initial residual = 0.117422, Final residual = 0.00849208, No Iterations 5
time step continuity errors : sum local = 5.29781e-05, global = 3.29025e-18, cumulative = -1.02161e-17
Pressure gradient source: uncorrected Ubar = 1.00009, pressure gradient = 0.0123613
smoothSolver:  Solving for omega, Initial residual = 0.000129947, Final residual = 1.06855e-05, No Iterations 1
smoothSolver:  Solving for k, Initial residual = 0.010712, Final residual = 0.000637165, No Iterations 4
ExecutionTime = 0.034475 s  ClockTime = 0 s

Time = 12s

smoothSolver:  Solving for Ux, Initial residual = 0.00595013, Final residual = 0.000511988, No Iterations 5
smoothSolver:  Solving for Uy, Initial residual = 0.777372, Final residual = 0.0320684, No Iterations 3
Pressure gradient source: uncorrected Ubar = 1.00047, pressure gradient = 0.00518569
GAMG:  Solving for p, Initial residual = 0.104736, Final residual = 0.00877792, No Iterations 5
time step continuity errors : sum local = 4.72477e-05, global = 6.36144e-18, cumulative = -3.85469e-18
Pressure gradient source: uncorrected Ubar = 1.00005, pressure gradient = 0.0115969
smoothSolver:  Solving for omega, Initial residual = 7.6536e-05, Final residual = 8.59707e-06, No Iterations 1
smoothSolver:  Solving for k, Initial residual = 0.00949872, Final residual = 0.000480317, No Iterations 4
ExecutionTime = 0.036661 s  ClockTime = 0 s

Time = 13s

smoothSolver:  Solving for Ux, Initial residual = 0.00524455, Final residual = 0.000460711, No Iterations 5
smoothSolver:  Solving for Uy, Initial residual = 0.687924, Final residual = 0.0270334, No Iterations 3
Pressure gradient source: uncorrected Ubar = 1.0004, pressure gradient = 0.00554157
GAMG:  Solving for p, Initial residual = 0.101944, Final residual = 0.00826353, No Iterations 5
time step continuity errors : sum local = 3.92224e-05, global = 2.12542e-18, cumulative = -1.72927e-18
Pressure gradient source: uncorrected Ubar = 1.00004, pressure gradient = 0.0109599
smoothSolver:  Solving for omega, Initial residual = 4.56696e-05, Final residual = 6.14481e-06, No Iterations 1
smoothSolver:  Solving for k, Initial residual = 0.00889036, Final residual = 0.000742743, No Iterations 4
ExecutionTime = 0.038811 s  ClockTime = 0 s

Time = 14s

smoothSolver:  Solving for Ux, Initial residual = 0.00463818, Final residual = 0.000417913, No Iterations 5
smoothSolver:  Solving for Uy, Initial residual = 0.686416, Final residual = 0.0262653, No Iterations 3
Pressure gradient source: uncorrected Ubar = 1.00038, pressure gradient = 0.00517984
GAMG:  Solving for p, Initial residual = 0.0988487, Final residual = 0.006896, No Iterations 5
time step continuity errors : sum local = 2.81621e-05, global = -5.88366e-18, cumulative = -7.61293e-18
Pressure gradient source: uncorrected Ubar = 1.00004, pressure gradient = 0.0103396
smoothSolver:  Solving for omega, Initial residual = 2.83278e-05, Final residual = 5.12056e-06, No Iterations 1
smoothSolver:  Solving for k, Initial residual = 0.00767002, Final residual = 0.000369072, No Iterations 4
ExecutionTime = 0.041304 s  ClockTime = 0 s

Time = 15s

smoothSolver:  Solving for Ux, Initial residual = 0.00413891, Final residual = 0.000379216, No Iterations 5
smoothSolver:  Solving for Uy, Initial residual = 0.656878, Final residual = 0.0247831, No Iterations 3
Pressure gradient source: uncorrected Ubar = 1.00026, pressure gradient = 0.00637034
GAMG:  Solving for p, Initial residual = 0.096234, Final residual = 0.00894082, No Iterations 4
time step continuity errors : sum local = 3.03857e-05, global = 4.79037e-18, cumulative = -2.82256e-18
Pressure gradient source: uncorrected Ubar = 1.00003, pressure gradient = 0.00994685
smoothSolver:  Solving for omega, Initial residual = 1.80453e-05, Final residual = 4.28087e-06, No Iterations 1
smoothSolver:  Solving for k, Initial residual = 0.00698202, Final residual = 0.000396298, No Iterations 4
ExecutionTime = 0.04336 s  ClockTime = 0 s

Time = 16s

smoothSolver:  Solving for Ux, Initial residual = 0.00372205, Final residual = 0.000347487, No Iterations 5
smoothSolver:  Solving for Uy, Initial residual = 0.685803, Final residual = 0.0266279, No Iterations 3
Pressure gradient source: uncorrected Ubar = 1.00024, pressure gradient = 0.00625951
GAMG:  Solving for p, Initial residual = 0.0989044, Final residual = 0.00739976, No Iterations 4
time step continuity errors : sum local = 2.13929e-05, global = 1.5471e-18, cumulative = -1.27546e-18
Pressure gradient source: uncorrected Ubar = 1.00002, pressure gradient = 0.00957678
smoothSolver:  Solving for omega, Initial residual = 1.20773e-05, Final residual = 3.35334e-06, No Iterations 1
smoothSolver:  Solving for k, Initial residual = 0.00633216, Final residual = 0.000397845, No Iterations 5
ExecutionTime = 0.045366 s  ClockTime = 0 s

Time = 17s

smoothSolver:  Solving for Ux, Initial residual = 0.00336462, Final residual = 0.000320507, No Iterations 5
smoothSolver:  Solving for Uy, Initial residual = 0.680037, Final residual = 0.0255054, No Iterations 3
Pressure gradient source: uncorrected Ubar = 1.00023, pressure gradient = 0.00613198
GAMG:  Solving for p, Initial residual = 0.102347, Final residual = 0.00600638, No Iterations 4
time step continuity errors : sum local = 1.51881e-05, global = 1.33095e-17, cumulative = 1.20341e-17
Pressure gradient source: uncorrected Ubar = 1.00002, pressure gradient = 0.00922662
smoothSolver:  Solving for omega, Initial residual = 8.48428e-06, Final residual = 8.48428e-06, No Iterations 0
smoothSolver:  Solving for k, Initial residual = 0.00579937, Final residual = 0.000387342, No Iterations 4
ExecutionTime = 0.047386 s  ClockTime = 0 s

Time = 18s

smoothSolver:  Solving for Ux, Initial residual = 0.0030142, Final residual = 0.000292267, No Iterations 5
smoothSolver:  Solving for Uy, Initial residual = 0.647123, Final residual = 0.0231532, No Iterations 3
Pressure gradient source: uncorrected Ubar = 1.0002, pressure gradient = 0.00631487
GAMG:  Solving for p, Initial residual = 0.100046, Final residual = 0.00525198, No Iterations 4
time step continuity errors : sum local = 1.16469e-05, global = -1.84891e-18, cumulative = 1.01852e-17
Pressure gradient source: uncorrected Ubar = 1.00002, pressure gradient = 0.00893624
smoothSolver:  Solving for omega, Initial residual = 8.53181e-06, Final residual = 8.53181e-06, No Iterations 0
smoothSolver:  Solving for k, Initial residual = 0.00570153, Final residual = 0.000410488, No Iterations 4
ExecutionTime = 0.049414 s  ClockTime = 0 s

Time = 19s

smoothSolver:  Solving for Ux, Initial residual = 0.00270227, Final residual = 0.000267215, No Iterations 5
smoothSolver:  Solving for Uy, Initial residual = 0.633877, Final residual = 0.0217708, No Iterations 3
Pressure gradient source: uncorrected Ubar = 1.00017, pressure gradient = 0.00649253
GAMG:  Solving for p, Initial residual = 0.0966104, Final residual = 0.00918796, No Iterations 3
time step continuity errors : sum local = 1.77556e-05, global = -1.17112e-17, cumulative = -1.52601e-18
Pressure gradient source: uncorrected Ubar = 1.00002, pressure gradient = 0.00869848
smoothSolver:  Solving for omega, Initial residual = 8.5894e-06, Final residual = 8.5894e-06, No Iterations 0
smoothSolver:  Solving for k, Initial residual = 0.00561119, Final residual = 0.00041351, No Iterations 4
ExecutionTime = 0.051395 s  ClockTime = 0 s

Time = 20s

smoothSolver:  Solving for Ux, Initial residual = 0.002442, Final residual = 0.000161024, No Iterations 6
smoothSolver:  Solving for Uy, Initial residual = 0.613578, Final residual = 0.0592361, No Iterations 2
Pressure gradient source: uncorrected Ubar = 1.00015, pressure gradient = 0.00660038
GAMG:  Solving for p, Initial residual = 0.0999717, Final residual = 0.00859818, No Iterations 3
time step continuity errors : sum local = 1.43873e-05, global = 1.02366e-17, cumulative = 8.71059e-18
Pressure gradient source: uncorrected Ubar = 1.00001, pressure gradient = 0.00848806
smoothSolver:  Solving for omega, Initial residual = 8.65334e-06, Final residual = 8.65334e-06, No Iterations 0
smoothSolver:  Solving for k, Initial residual = 0.00563916, Final residual = 0.000516743, No Iterations 4
ExecutionTime = 0.053463 s  ClockTime = 0 s

Time = 21s

smoothSolver:  Solving for Ux, Initial residual = 0.00219448, Final residual = 0.000147474, No Iterations 6
smoothSolver:  Solving for Uy, Initial residual = 0.602976, Final residual = 0.0526437, No Iterations 2
Pressure gradient source: uncorrected Ubar = 1.00012, pressure gradient = 0.00676184
GAMG:  Solving for p, Initial residual = 0.0940858, Final residual = 0.00782553, No Iterations 3
time step continuity errors : sum local = 1.14917e-05, global = 4.61645e-19, cumulative = 9.17224e-18
Pressure gradient source: uncorrected Ubar = 1.00001, pressure gradient = 0.00831999
smoothSolver:  Solving for omega, Initial residual = 8.75428e-06, Final residual = 8.75428e-06, No Iterations 0
smoothSolver:  Solving for k, Initial residual = 0.00560532, Final residual = 0.00054671, No Iterations 4
ExecutionTime = 0.055572 s  ClockTime = 0 s

Time = 22s

smoothSolver:  Solving for Ux, Initial residual = 0.00198468, Final residual = 0.000135125, No Iterations 6
smoothSolver:  Solving for Uy, Initial residual = 0.592356, Final residual = 0.0500081, No Iterations 2
Pressure gradient source: uncorrected Ubar = 1.00011, pressure gradient = 0.00675848
GAMG:  Solving for p, Initial residual = 0.0902299, Final residual = 0.0070014, No Iterations 3
time step continuity errors : sum local = 9.17087e-06, global = 1.13049e-17, cumulative = 2.04771e-17
Pressure gradient source: uncorrected Ubar = 1.00001, pressure gradient = 0.00816812
smoothSolver:  Solving for omega, Initial residual = 8.87635e-06, Final residual = 8.87635e-06, No Iterations 0
smoothSolver:  Solving for k, Initial residual = 0.00545339, Final residual = 0.000492846, No Iterations 4
ExecutionTime = 0.057865 s  ClockTime = 0 s

Time = 23s

smoothSolver:  Solving for Ux, Initial residual = 0.00180773, Final residual = 0.000124305, No Iterations 6
smoothSolver:  Solving for Uy, Initial residual = 0.59835, Final residual = 0.050408, No Iterations 2
Pressure gradient source: uncorrected Ubar = 1.0001, pressure gradient = 0.00677492
GAMG:  Solving for p, Initial residual = 0.09564, Final residual = 0.00702436, No Iterations 3
time step continuity errors : sum local = 8.01173e-06, global = 1.54975e-18, cumulative = 2.20269e-17
Pressure gradient source: uncorrected Ubar = 1.00001, pressure gradient = 0.0080335
smoothSolver:  Solving for omega, Initial residual = 9.01554e-06, Final residual = 9.01554e-06, No Iterations 0
smoothSolver:  Solving for k, Initial residual = 0.00535432, Final residual = 0.00049493, No Iterations 4
ExecutionTime = 0.059859 s  ClockTime = 0 s

Time = 24s

smoothSolver:  Solving for Ux, Initial residual = 0.00165471, Final residual = 0.00011412, No Iterations 6
smoothSolver:  Solving for Uy, Initial residual = 0.613287, Final residual = 0.0529009, No Iterations 2
Pressure gradient source: uncorrected Ubar = 1.00009, pressure gradient = 0.00682228
GAMG:  Solving for p, Initial residual = 0.0971465, Final residual = 0.00719173, No Iterations 3
time step continuity errors : sum local = 7.34514e-06, global = 3.06097e-18, cumulative = 2.50879e-17
Pressure gradient source: uncorrected Ubar = 1.00001, pressure gradient = 0.00791853
smoothSolver:  Solving for omega, Initial residual = 9.16914e-06, Final residual = 9.16914e-06, No Iterations 0
smoothSolver:  Solving for k, Initial residual = 0.00522062, Final residual = 0.000498072, No Iterations 4
ExecutionTime = 0.061837 s  ClockTime = 0 s

Time = 25s

smoothSolver:  Solving for Ux, Initial residual = 0.00151318, Final residual = 0.000104918, No Iterations 6
smoothSolver:  Solving for Uy, Initial residual = 0.620131, Final residual = 0.0536275, No Iterations 2
Pressure gradient source: uncorrected Ubar = 1.00007, pressure gradient = 0.0068948
GAMG:  Solving for p, Initial residual = 0.0828325, Final residual = 0.00635855, No Iterations 3
time step continuity errors : sum local = 5.83075e-06, global = 6.44349e-18, cumulative = 3.15313e-17
Pressure gradient source: uncorrected Ubar = 1.00001, pressure gradient = 0.00782413
smoothSolver:  Solving for omega, Initial residual = 9.31031e-06, Final residual = 9.31031e-06, No Iterations 0
smoothSolver:  Solving for k, Initial residual = 0.00506476, Final residual = 0.000311177, No Iterations 4
ExecutionTime = 0.063855 s  ClockTime = 0 s

Time = 26s

smoothSolver:  Solving for Ux, Initial residual = 0.00138414, Final residual = 9.59781e-05, No Iterations 6
smoothSolver:  Solving for Uy, Initial residual = 0.549892, Final residual = 0.0466363, No Iterations 2
Pressure gradient source: uncorrected Ubar = 1.00007, pressure gradient = 0.00691291
GAMG:  Solving for p, Initial residual = 0.0809414, Final residual = 0.00600022, No Iterations 3
time step continuity errors : sum local = 4.91242e-06, global = 2.85651e-18, cumulative = 3.43878e-17
Pressure gradient source: uncorrected Ubar = 1.00001, pressure gradient = 0.00774093
smoothSolver:  Solving for omega, Initial residual = 9.44454e-06, Final residual = 9.44454e-06, No Iterations 0
smoothSolver:  Solving for k, Initial residual = 0.00511681, Final residual = 0.000364196, No Iterations 5
ExecutionTime = 0.065836 s  ClockTime = 0 s

Time = 27s

smoothSolver:  Solving for Ux, Initial residual = 0.00126468, Final residual = 8.78075e-05, No Iterations 6
smoothSolver:  Solving for Uy, Initial residual = 0.51413, Final residual = 0.0428364, No Iterations 2
Pressure gradient source: uncorrected Ubar = 1.00006, pressure gradient = 0.00686942
GAMG:  Solving for p, Initial residual = 0.0775577, Final residual = 0.00580864, No Iterations 3
time step continuity errors : sum local = 4.23817e-06, global = 8.02336e-18, cumulative = 4.24112e-17
Pressure gradient source: uncorrected Ubar = 1.00001, pressure gradient = 0.00765965
smoothSolver:  Solving for omega, Initial residual = 9.56935e-06, Final residual = 9.56935e-06, No Iterations 0
smoothSolver:  Solving for k, Initial residual = 0.00497819, Final residual = 0.000354577, No Iterations 5
ExecutionTime = 0.06771 s  ClockTime = 0 s

Time = 28s

smoothSolver:  Solving for Ux, Initial residual = 0.00115425, Final residual = 8.02127e-05, No Iterations 6
smoothSolver:  Solving for Uy, Initial residual = 0.48386, Final residual = 0.0381024, No Iterations 2
Pressure gradient source: uncorrected Ubar = 1.00006, pressure gradient = 0.00685668
GAMG:  Solving for p, Initial residual = 0.0755971, Final residual = 0.0055976, No Iterations 3
time step continuity errors : sum local = 3.80561e-06, global = 1.15353e-17, cumulative = 5.39465e-17
Pressure gradient source: uncorrected Ubar = 1.00001, pressure gradient = 0.0075844
smoothSolver:  Solving for omega, Initial residual = 9.6869e-06, Final residual = 9.6869e-06, No Iterations 0
smoothSolver:  Solving for k, Initial residual = 0.00486783, Final residual = 0.000307404, No Iterations 5
ExecutionTime = 0.069758 s  ClockTime = 0 s

Time = 29s

smoothSolver:  Solving for Ux, Initial residual = 0.00105707, Final residual = 7.31493e-05, No Iterations 6
smoothSolver:  Solving for Uy, Initial residual = 0.485455, Final residual = 0.0398232, No Iterations 2
Pressure gradient source: uncorrected Ubar = 1.00005, pressure gradient = 0.00687129
GAMG:  Solving for p, Initial residual = 0.0778525, Final residual = 0.00530413, No Iterations 3
time step continuity errors : sum local = 3.29275e-06, global = -2.95967e-18, cumulative = 5.09869e-17
Pressure gradient source: uncorrected Ubar = 1, pressure gradient = 0.00751831
smoothSolver:  Solving for omega, Initial residual = 9.79242e-06, Final residual = 9.79242e-06, No Iterations 0
smoothSolver:  Solving for k, Initial residual = 0.00471879, Final residual = 0.000407308, No Iterations 4
ExecutionTime = 0.07193 s  ClockTime = 0 s

Time = 30s

smoothSolver:  Solving for Ux, Initial residual = 0.000967531, Final residual = 6.69337e-05, No Iterations 6
smoothSolver:  Solving for Uy, Initial residual = 0.443268, Final residual = 0.0408193, No Iterations 2
Pressure gradient source: uncorrected Ubar = 1.00005, pressure gradient = 0.00689495
GAMG:  Solving for p, Initial residual = 0.0652522, Final residual = 0.00434484, No Iterations 3
time step continuity errors : sum local = 2.43926e-06, global = 1.26998e-17, cumulative = 6.36867e-17
Pressure gradient source: uncorrected Ubar = 1, pressure gradient = 0.00746158
smoothSolver:  Solving for omega, Initial residual = 9.89014e-06, Final residual = 9.89014e-06, No Iterations 0
smoothSolver:  Solving for k, Initial residual = 0.00462161, Final residual = 0.000351986, No Iterations 4
ExecutionTime = 0.074422 s  ClockTime = 0 s

Time = 31s

smoothSolver:  Solving for Ux, Initial residual = 0.000888468, Final residual = 6.13238e-05, No Iterations 6
smoothSolver:  Solving for Uy, Initial residual = 0.43574, Final residual = 0.0177598, No Iterations 3
Pressure gradient source: uncorrected Ubar = 1.00004, pressure gradient = 0.00688425
GAMG:  Solving for p, Initial residual = 0.0622948, Final residual = 0.00427724, No Iterations 3
time step continuity errors : sum local = 2.20982e-06, global = 6.51886e-18, cumulative = 7.02056e-17
Pressure gradient source: uncorrected Ubar = 1, pressure gradient = 0.0074087
smoothSolver:  Solving for omega, Initial residual = 9.97903e-06, Final residual = 9.97903e-06, No Iterations 0
smoothSolver:  Solving for k, Initial residual = 0.00464831, Final residual = 0.000328203, No Iterations 5
ExecutionTime = 0.07649 s  ClockTime = 0 s

Time = 32s

smoothSolver:  Solving for Ux, Initial residual = 0.00081582, Final residual = 5.60727e-05, No Iterations 6
smoothSolver:  Solving for Uy, Initial residual = 0.410419, Final residual = 0.0395179, No Iterations 2
Pressure gradient source: uncorrected Ubar = 1.00004, pressure gradient = 0.00685115
GAMG:  Solving for p, Initial residual = 0.0596529, Final residual = 0.00388168, No Iterations 3
time step continuity errors : sum local = 1.8557e-06, global = 8.00668e-18, cumulative = 7.82123e-17
Pressure gradient source: uncorrected Ubar = 1, pressure gradient = 0.00735641
smoothSolver:  Solving for omega, Initial residual = 1.00582e-05, Final residual = 3.65333e-06, No Iterations 1
smoothSolver:  Solving for k, Initial residual = 0.00380852, Final residual = 0.00023906, No Iterations 5
ExecutionTime = 0.078464 s  ClockTime = 0 s

Time = 33s

smoothSolver:  Solving for Ux, Initial residual = 0.000762153, Final residual = 5.23003e-05, No Iterations 6
smoothSolver:  Solving for Uy, Initial residual = 0.437248, Final residual = 0.0370331, No Iterations 2
Pressure gradient source: uncorrected Ubar = 1.00002, pressure gradient = 0.00704776
GAMG:  Solving for p, Initial residual = 0.0820237, Final residual = 0.00398109, No Iterations 3
time step continuity errors : sum local = 1.70698e-06, global = 5.05758e-19, cumulative = 7.8718e-17
Pressure gradient source: uncorrected Ubar = 1, pressure gradient = 0.00733503
smoothSolver:  Solving for omega, Initial residual = 7.46833e-06, Final residual = 7.46833e-06, No Iterations 0
smoothSolver:  Solving for k, Initial residual = 0.003319, Final residual = 0.000239458, No Iterations 5
ExecutionTime = 0.080401 s  ClockTime = 0 s

Time = 34s

smoothSolver:  Solving for Ux, Initial residual = 0.000699066, Final residual = 4.78733e-05, No Iterations 6
smoothSolver:  Solving for Uy, Initial residual = 0.469399, Final residual = 0.0387059, No Iterations 2
Pressure gradient source: uncorrected Ubar = 1.00003, pressure gradient = 0.00689308
GAMG:  Solving for p, Initial residual = 0.0851108, Final residual = 0.0042524, No Iterations 3
time step continuity errors : sum local = 1.60572e-06, global = -4.82888e-18, cumulative = 7.38891e-17
Pressure gradient source: uncorrected Ubar = 1, pressure gradient = 0.00729474
smoothSolver:  Solving for omega, Initial residual = 7.51515e-06, Final residual = 7.51515e-06, No Iterations 0
smoothSolver:  Solving for k, Initial residual = 0.00330998, Final residual = 0.000242267, No Iterations 5
ExecutionTime = 0.082338 s  ClockTime = 0 s

Time = 35s

smoothSolver:  Solving for Ux, Initial residual = 0.000644386, Final residual = 4.39522e-05, No Iterations 6
smoothSolver:  Solving for Uy, Initial residual = 0.509018, Final residual = 0.0434569, No Iterations 2
Pressure gradient source: uncorrected Ubar = 1.00003, pressure gradient = 0.00689711
GAMG:  Solving for p, Initial residual = 0.0791181, Final residual = 0.00478541, No Iterations 3
time step continuity errors : sum local = 1.6513e-06, global = 9.89788e-18, cumulative = 8.3787e-17
Pressure gradient source: uncorrected Ubar = 1, pressure gradient = 0.00725875
smoothSolver:  Solving for omega, Initial residual = 7.55776e-06, Final residual = 7.55776e-06, No Iterations 0
smoothSolver:  Solving for k, Initial residual = 0.0032794, Final residual = 0.000308702, No Iterations 4
ExecutionTime = 0.084324 s  ClockTime = 0 s

Time = 36s

smoothSolver:  Solving for Ux, Initial residual = 0.000593772, Final residual = 4.03216e-05, No Iterations 6
smoothSolver:  Solving for Uy, Initial residual = 0.499986, Final residual = 0.0462631, No Iterations 2
Pressure gradient source: uncorrected Ubar = 1.00003, pressure gradient = 0.00691139
GAMG:  Solving for p, Initial residual = 0.0806731, Final residual = 0.00539485, No Iterations 4
time step continuity errors : sum local = 1.65218e-06, global = -8.78069e-19, cumulative = 8.29089e-17
Pressure gradient source: uncorrected Ubar = 1, pressure gradient = 0.00722798
smoothSolver:  Solving for omega, Initial residual = 7.58733e-06, Final residual = 7.58733e-06, No Iterations 0
smoothSolver:  Solving for k, Initial residual = 0.00330084, Final residual = 0.000275414, No Iterations 4
ExecutionTime = 0.086464 s  ClockTime = 0 s

Time = 37s

smoothSolver:  Solving for Ux, Initial residual = 0.000546181, Final residual = 3.69488e-05, No Iterations 6
smoothSolver:  Solving for Uy, Initial residual = 0.532084, Final residual = 0.0521313, No Iterations 2
Pressure gradient source: uncorrected Ubar = 1.00002, pressure gradient = 0.00690605
GAMG:  Solving for p, Initial residual = 0.0904809, Final residual = 0.0052987, No Iterations 5
time step continuity errors : sum local = 1.46029e-06, global = -8.26339e-18, cumulative = 7.46456e-17
Pressure gradient source: uncorrected Ubar = 1, pressure gradient = 0.00719934
smoothSolver:  Solving for omega, Initial residual = 7.6171e-06, Final residual = 7.6171e-06, No Iterations 0
smoothSolver:  Solving for k, Initial residual = 0.00333858, Final residual = 0.000280859, No Iterations 4
ExecutionTime = 0.088572 s  ClockTime = 0 s

Time = 38s

smoothSolver:  Solving for Ux, Initial residual = 0.000504531, Final residual = 3.38596e-05, No Iterations 6
smoothSolver:  Solving for Uy, Initial residual = 0.548369, Final residual = 0.025427, No Iterations 3
Pressure gradient source: uncorrected Ubar = 1.00002, pressure gradient = 0.00689547
GAMG:  Solving for p, Initial residual = 0.0805477, Final residual = 0.00737395, No Iterations 4
time step continuity errors : sum local = 1.79483e-06, global = -1.18808e-17, cumulative = 6.27648e-17
Pressure gradient source: uncorrected Ubar = 1, pressure gradient = 0.00717195
smoothSolver:  Solving for omega, Initial residual = 7.64006e-06, Final residual = 7.64006e-06, No Iterations 0
smoothSolver:  Solving for k, Initial residual = 0.00343957, Final residual = 0.000273086, No Iterations 5
ExecutionTime = 0.091027 s  ClockTime = 0 s

Time = 39s

smoothSolver:  Solving for Ux, Initial residual = 0.000462541, Final residual = 3.09531e-05, No Iterations 6
smoothSolver:  Solving for Uy, Initial residual = 0.526474, Final residual = 0.0510749, No Iterations 2
Pressure gradient source: uncorrected Ubar = 1.00002, pressure gradient = 0.0068668
GAMG:  Solving for p, Initial residual = 0.0804337, Final residual = 0.00747822, No Iterations 3
time step continuity errors : sum local = 1.63504e-06, global = -4.05829e-18, cumulative = 5.87065e-17
Pressure gradient source: uncorrected Ubar = 1, pressure gradient = 0.00714334
smoothSolver:  Solving for omega, Initial residual = 7.66145e-06, Final residual = 7.66145e-06, No Iterations 0
smoothSolver:  Solving for k, Initial residual = 0.00348808, Final residual = 0.000262643, No Iterations 5
ExecutionTime = 0.093084 s  ClockTime = 0 s

Time = 40s

smoothSolver:  Solving for Ux, Initial residual = 0.000426767, Final residual = 2.847e-05, No Iterations 6
smoothSolver:  Solving for Uy, Initial residual = 0.506129, Final residual = 0.0500584, No Iterations 2
Pressure gradient source: uncorrected Ubar = 1.00002, pressure gradient = 0.00685959
GAMG:  Solving for p, Initial residual = 0.0814342, Final residual = 0.00636245, No Iterations 4
time step continuity errors : sum local = 1.3068e-06, global = 2.43666e-18, cumulative = 6.11431e-17
Pressure gradient source: uncorrected Ubar = 1, pressure gradient = 0.00711653
smoothSolver:  Solving for omega, Initial residual = 7.6783e-06, Final residual = 7.6783e-06, No Iterations 0
smoothSolver:  Solving for k, Initial residual = 0.00349161, Final residual = 0.000223095, No Iterations 5
ExecutionTime = 0.095072 s  ClockTime = 0 s

Time = 41s

smoothSolver:  Solving for Ux, Initial residual = 0.000393521, Final residual = 2.61399e-05, No Iterations 6
smoothSolver:  Solving for Uy, Initial residual = 0.481786, Final residual = 0.0474824, No Iterations 2
Pressure gradient source: uncorrected Ubar = 1.00002, pressure gradient = 0.00685815
GAMG:  Solving for p, Initial residual = 0.0675745, Final residual = 0.00619394, No Iterations 4
time step continuity errors : sum local = 1.1632e-06, global = 4.75728e-18, cumulative = 6.59004e-17
Pressure gradient source: uncorrected Ubar = 1, pressure gradient = 0.00709211
smoothSolver:  Solving for omega, Initial residual = 7.69641e-06, Final residual = 7.69641e-06, No Iterations 0
smoothSolver:  Solving for k, Initial residual = 0.00352313, Final residual = 0.000213143, No Iterations 5
ExecutionTime = 0.097043 s  ClockTime = 0 s

Time = 42s

smoothSolver:  Solving for Ux, Initial residual = 0.000361292, Final residual = 2.39722e-05, No Iterations 6
smoothSolver:  Solving for Uy, Initial residual = 0.504301, Final residual = 0.0234282, No Iterations 3
Pressure gradient source: uncorrected Ubar = 1.00002, pressure gradient = 0.00685343
GAMG:  Solving for p, Initial residual = 0.0810718, Final residual = 0.00667136, No Iterations 4
time step continuity errors : sum local = 1.17053e-06, global = 7.48953e-18, cumulative = 7.33899e-17
Pressure gradient source: uncorrected Ubar = 1, pressure gradient = 0.00706947
smoothSolver:  Solving for omega, Initial residual = 7.70901e-06, Final residual = 7.70901e-06, No Iterations 0
smoothSolver:  Solving for k, Initial residual = 0.00352648, Final residual = 0.000210482, No Iterations 5
ExecutionTime = 0.099009 s  ClockTime = 0 s

Time = 43s

smoothSolver:  Solving for Ux, Initial residual = 0.000332298, Final residual = 2.20827e-05, No Iterations 6
smoothSolver:  Solving for Uy, Initial residual = 0.497677, Final residual = 0.0208387, No Iterations 3
Pressure gradient source: uncorrected Ubar = 1.00002, pressure gradient = 0.00684269
GAMG:  Solving for p, Initial residual = 0.0747297, Final residual = 0.00703251, No Iterations 3
time step continuity errors : sum local = 1.12065e-06, global = 3.12178e-18, cumulative = 7.65117e-17
Pressure gradient source: uncorrected Ubar = 1, pressure gradient = 0.00704761
smoothSolver:  Solving for omega, Initial residual = 7.71971e-06, Final residual = 7.71971e-06, No Iterations 0
smoothSolver:  Solving for k, Initial residual = 0.00360058, Final residual = 0.000274119, No Iterations 5
ExecutionTime = 0.100953 s  ClockTime = 0 s

Time = 44s

smoothSolver:  Solving for Ux, Initial residual = 0.000310762, Final residual = 2.06746e-05, No Iterations 6
smoothSolver:  Solving for Uy, Initial residual = 0.503787, Final residual = 0.0184616, No Iterations 3
Pressure gradient source: uncorrected Ubar = 1.00002, pressure gradient = 0.00682327
GAMG:  Solving for p, Initial residual = 0.0568281, Final residual = 0.00534358, No Iterations 4
time step continuity errors : sum local = 8.26267e-07, global = 2.04795e-18, cumulative = 7.85597e-17
Pressure gradient source: uncorrected Ubar = 1, pressure gradient = 0.00702535
smoothSolver:  Solving for omega, Initial residual = 7.72558e-06, Final residual = 7.72558e-06, No Iterations 0
smoothSolver:  Solving for k, Initial residual = 0.00359144, Final residual = 0.000236142, No Iterations 5
ExecutionTime = 0.103109 s  ClockTime = 0 s

Time = 45s

smoothSolver:  Solving for Ux, Initial residual = 0.000292124, Final residual = 1.94715e-05, No Iterations 6
smoothSolver:  Solving for Uy, Initial residual = 0.473049, Final residual = 0.018102, No Iterations 3
Pressure gradient source: uncorrected Ubar = 1.00002, pressure gradient = 0.00682201
GAMG:  Solving for p, Initial residual = 0.0550062, Final residual = 0.00338695, No Iterations 5
time step continuity errors : sum local = 4.79085e-07, global = 1.49789e-18, cumulative = 8.00576e-17
Pressure gradient source: uncorrected Ubar = 1, pressure gradient = 0.00700517
smoothSolver:  Solving for omega, Initial residual = 7.73066e-06, Final residual = 7.73066e-06, No Iterations 0
smoothSolver:  Solving for k, Initial residual = 0.00364371, Final residual = 0.000229699, No Iterations 5
ExecutionTime = 0.105207 s  ClockTime = 0 s

Time = 46s

smoothSolver:  Solving for Ux, Initial residual = 0.000275567, Final residual = 1.8484e-05, No Iterations 6
smoothSolver:  Solving for Uy, Initial residual = 0.43135, Final residual = 0.0163297, No Iterations 3
Pressure gradient source: uncorrected Ubar = 1.00001, pressure gradient = 0.00681543
GAMG:  Solving for p, Initial residual = 0.056827, Final residual = 0.00361659, No Iterations 4
time step continuity errors : sum local = 4.95371e-07, global = 1.03742e-17, cumulative = 9.04317e-17
Pressure gradient source: uncorrected Ubar = 1, pressure gradient = 0.00698619
smoothSolver:  Solving for omega, Initial residual = 7.72978e-06, Final residual = 7.72978e-06, No Iterations 0
smoothSolver:  Solving for k, Initial residual = 0.00363766, Final residual = 0.000362163, No Iterations 4
ExecutionTime = 0.107599 s  ClockTime = 0 s

Time = 47s

smoothSolver:  Solving for Ux, Initial residual = 0.000262135, Final residual = 1.7808e-05, No Iterations 6
smoothSolver:  Solving for Uy, Initial residual = 0.350409, Final residual = 0.0134002, No Iterations 3
Pressure gradient source: uncorrected Ubar = 1.00001, pressure gradient = 0.0068166
GAMG:  Solving for p, Initial residual = 0.0705982, Final residual = 0.00629976, No Iterations 4
time step continuity errors : sum local = 8.23877e-07, global = -7.74843e-19, cumulative = 8.96569e-17
Pressure gradient source: uncorrected Ubar = 1, pressure gradient = 0.0069693
smoothSolver:  Solving for omega, Initial residual = 7.72531e-06, Final residual = 7.72531e-06, No Iterations 0
smoothSolver:  Solving for k, Initial residual = 0.00365817, Final residual = 0.000234917, No Iterations 5
ExecutionTime = 0.10973 s  ClockTime = 0 s

Time = 48s

smoothSolver:  Solving for Ux, Initial residual = 0.000253474, Final residual = 1.74879e-05, No Iterations 6
smoothSolver:  Solving for Uy, Initial residual = 0.452302, Final residual = 0.0227667, No Iterations 3
Pressure gradient source: uncorrected Ubar = 1.00001, pressure gradient = 0.0067978
GAMG:  Solving for p, Initial residual = 0.0653179, Final residual = 0.00427275, No Iterations 5
time step continuity errors : sum local = 5.10417e-07, global = -3.25355e-19, cumulative = 8.93315e-17
Pressure gradient source: uncorrected Ubar = 1, pressure gradient = 0.00695166
smoothSolver:  Solving for omega, Initial residual = 7.72493e-06, Final residual = 7.72493e-06, No Iterations 0
smoothSolver:  Solving for k, Initial residual = 0.00361346, Final residual = 0.000297951, No Iterations 4
ExecutionTime = 0.111735 s  ClockTime = 0 s

Time = 49s

smoothSolver:  Solving for Ux, Initial residual = 0.000246555, Final residual = 1.72995e-05, No Iterations 6
smoothSolver:  Solving for Uy, Initial residual = 0.375844, Final residual = 0.0165105, No Iterations 3
Pressure gradient source: uncorrected Ubar = 1.00001, pressure gradient = 0.00680198
GAMG:  Solving for p, Initial residual = 0.0571761, Final residual = 0.00409893, No Iterations 4
time step continuity errors : sum local = 4.97336e-07, global = 5.0139e-18, cumulative = 9.43454e-17
Pressure gradient source: uncorrected Ubar = 1, pressure gradient = 0.00693644
smoothSolver:  Solving for omega, Initial residual = 7.71789e-06, Final residual = 7.71789e-06, No Iterations 0
smoothSolver:  Solving for k, Initial residual = 0.00363723, Final residual = 0.000266058, No Iterations 5
ExecutionTime = 0.113767 s  ClockTime = 0 s

Time = 50s

smoothSolver:  Solving for Ux, Initial residual = 0.000242877, Final residual = 1.7394e-05, No Iterations 6
smoothSolver:  Solving for Uy, Initial residual = 0.261666, Final residual = 0.01076, No Iterations 3
Pressure gradient source: uncorrected Ubar = 1.00001, pressure gradient = 0.0067783
GAMG:  Solving for p, Initial residual = 0.0387514, Final residual = 0.0031151, No Iterations 4
time step continuity errors : sum local = 3.65628e-07, global = 4.53714e-18, cumulative = 9.88826e-17
Pressure gradient source: uncorrected Ubar = 1, pressure gradient = 0.00691968
smoothSolver:  Solving for omega, Initial residual = 7.71351e-06, Final residual = 7.71351e-06, No Iterations 0
smoothSolver:  Solving for k, Initial residual = 0.00367276, Final residual = 0.00027018, No Iterations 5
ExecutionTime = 0.115754 s  ClockTime = 0 s

Time = 51s

smoothSolver:  Solving for Ux, Initial residual = 0.000240139, Final residual = 1.77182e-05, No Iterations 6
smoothSolver:  Solving for Uy, Initial residual = 0.229656, Final residual = 0.010771, No Iterations 3
Pressure gradient source: uncorrected Ubar = 1.00001, pressure gradient = 0.00677099
GAMG:  Solving for p, Initial residual = 0.0452626, Final residual = 0.00303442, No Iterations 4
time step continuity errors : sum local = 3.43852e-07, global = -2.66035e-18, cumulative = 9.62222e-17
Pressure gradient source: uncorrected Ubar = 1, pressure gradient = 0.00690376
smoothSolver:  Solving for omega, Initial residual = 7.70344e-06, Final residual = 7.70344e-06, No Iterations 0
smoothSolver:  Solving for k, Initial residual = 0.00362832, Final residual = 0.00021592, No Iterations 5
ExecutionTime = 0.117782 s  ClockTime = 0 s

Time = 52s

smoothSolver:  Solving for Ux, Initial residual = 0.000238676, Final residual = 1.80989e-05, No Iterations 6
smoothSolver:  Solving for Uy, Initial residual = 0.22202, Final residual = 0.0221483, No Iterations 2
Pressure gradient source: uncorrected Ubar = 1.00001, pressure gradient = 0.00676922
GAMG:  Solving for p, Initial residual = 0.046392, Final residual = 0.00439342, No Iterations 3
time step continuity errors : sum local = 4.96182e-07, global = -1.11069e-17, cumulative = 8.51153e-17
Pressure gradient source: uncorrected Ubar = 1, pressure gradient = 0.00688931
smoothSolver:  Solving for omega, Initial residual = 7.69026e-06, Final residual = 7.69026e-06, No Iterations 0
smoothSolver:  Solving for k, Initial residual = 0.0036233, Final residual = 0.000221915, No Iterations 5
ExecutionTime = 0.119872 s  ClockTime = 0 s

Time = 53s

smoothSolver:  Solving for Ux, Initial residual = 0.000240815, Final residual = 1.84761e-05, No Iterations 6
smoothSolver:  Solving for Uy, Initial residual = 0.180657, Final residual = 0.00684059, No Iterations 3
Pressure gradient source: uncorrected Ubar = 1.00001, pressure gradient = 0.00676239
GAMG:  Solving for p, Initial residual = 0.048394, Final residual = 0.00289831, No Iterations 5
time step continuity errors : sum local = 2.88033e-07, global = -1.20579e-17, cumulative = 7.30575e-17
Pressure gradient source: uncorrected Ubar = 1, pressure gradient = 0.00687555
smoothSolver:  Solving for omega, Initial residual = 7.6824e-06, Final residual = 7.6824e-06, No Iterations 0
smoothSolver:  Solving for k, Initial residual = 0.00359264, Final residual = 0.000222653, No Iterations 5
ExecutionTime = 0.122116 s  ClockTime = 0 s

Time = 54s

smoothSolver:  Solving for Ux, Initial residual = 0.000243452, Final residual = 1.88559e-05, No Iterations 6
smoothSolver:  Solving for Uy, Initial residual = 0.186586, Final residual = 0.0104862, No Iterations 3
Pressure gradient source: uncorrected Ubar = 1.00001, pressure gradient = 0.00675302
GAMG:  Solving for p, Initial residual = 0.0494952, Final residual = 0.00288887, No Iterations 5
time step continuity errors : sum local = 3.03353e-07, global = -2.73359e-18, cumulative = 7.03239e-17
Pressure gradient source: uncorrected Ubar = 1, pressure gradient = 0.00686206
smoothSolver:  Solving for omega, Initial residual = 7.66648e-06, Final residual = 7.66648e-06, No Iterations 0
smoothSolver:  Solving for k, Initial residual = 0.00357632, Final residual = 0.000212356, No Iterations 5
ExecutionTime = 0.124583 s  ClockTime = 0 s

Time = 55s

smoothSolver:  Solving for Ux, Initial residual = 0.000247466, Final residual = 1.92594e-05, No Iterations 6
smoothSolver:  Solving for Uy, Initial residual = 0.135485, Final residual = 0.00796646, No Iterations 3
Pressure gradient source: uncorrected Ubar = 1.00001, pressure gradient = 0.00674505
GAMG:  Solving for p, Initial residual = 0.0354196, Final residual = 0.00287718, No Iterations 4
time step continuity errors : sum local = 2.75522e-07, global = 2.25926e-18, cumulative = 7.25831e-17
Pressure gradient source: uncorrected Ubar = 1, pressure gradient = 0.00684902
smoothSolver:  Solving for omega, Initial residual = 7.65393e-06, Final residual = 7.65393e-06, No Iterations 0
smoothSolver:  Solving for k, Initial residual = 0.00359324, Final residual = 0.000264489, No Iterations 5
ExecutionTime = 0.126637 s  ClockTime = 0 s

Time = 56s

smoothSolver:  Solving for Ux, Initial residual = 0.000248975, Final residual = 1.95388e-05, No Iterations 6
smoothSolver:  Solving for Uy, Initial residual = 0.135029, Final residual = 0.00634216, No Iterations 3
Pressure gradient source: uncorrected Ubar = 1.00001, pressure gradient = 0.00673649
GAMG:  Solving for p, Initial residual = 0.0347831, Final residual = 0.00333205, No Iterations 4
time step continuity errors : sum local = 2.97358e-07, global = 3.96118e-18, cumulative = 7.65443e-17
Pressure gradient source: uncorrected Ubar = 1, pressure gradient = 0.00683631
smoothSolver:  Solving for omega, Initial residual = 7.63965e-06, Final residual = 7.63965e-06, No Iterations 0
smoothSolver:  Solving for k, Initial residual = 0.00355601, Final residual = 0.000230457, No Iterations 5
ExecutionTime = 0.12867 s  ClockTime = 0 s

Time = 57s

smoothSolver:  Solving for Ux, Initial residual = 0.000250432, Final residual = 1.97269e-05, No Iterations 6
smoothSolver:  Solving for Uy, Initial residual = 0.122154, Final residual = 0.00670157, No Iterations 3
Pressure gradient source: uncorrected Ubar = 1.00001, pressure gradient = 0.00673245
GAMG:  Solving for p, Initial residual = 0.0393293, Final residual = 0.00321343, No Iterations 3
time step continuity errors : sum local = 2.71352e-07, global = 3.58827e-18, cumulative = 8.01326e-17
Pressure gradient source: uncorrected Ubar = 1, pressure gradient = 0.00682451
smoothSolver:  Solving for omega, Initial residual = 7.62384e-06, Final residual = 7.62384e-06, No Iterations 0
smoothSolver:  Solving for k, Initial residual = 0.00352614, Final residual = 0.000245569, No Iterations 5
ExecutionTime = 0.130607 s  ClockTime = 0 s

Time = 58s

smoothSolver:  Solving for Ux, Initial residual = 0.00025327, Final residual = 2.00348e-05, No Iterations 6
smoothSolver:  Solving for Uy, Initial residual = 0.142668, Final residual = 0.00805227, No Iterations 3
Pressure gradient source: uncorrected Ubar = 1.00001, pressure gradient = 0.0067214
GAMG:  Solving for p, Initial residual = 0.0352421, Final residual = 0.00242747, No Iterations 3
time step continuity errors : sum local = 2.01755e-07, global = 6.28604e-18, cumulative = 8.64186e-17
Pressure gradient source: uncorrected Ubar = 1, pressure gradient = 0.00681258
smoothSolver:  Solving for omega, Initial residual = 7.60705e-06, Final residual = 7.60705e-06, No Iterations 0
smoothSolver:  Solving for k, Initial residual = 0.00347404, Final residual = 0.000221027, No Iterations 5
ExecutionTime = 0.132603 s  ClockTime = 0 s

Time = 59s

smoothSolver:  Solving for Ux, Initial residual = 0.000255244, Final residual = 2.02587e-05, No Iterations 6
smoothSolver:  Solving for Uy, Initial residual = 0.134023, Final residual = 0.00676617, No Iterations 3
Pressure gradient source: uncorrected Ubar = 1.00001, pressure gradient = 0.00671786
GAMG:  Solving for p, Initial residual = 0.0411898, Final residual = 0.00211964, No Iterations 3
time step continuity errors : sum local = 1.66262e-07, global = -7.74553e-18, cumulative = 7.86731e-17
Pressure gradient source: uncorrected Ubar = 1, pressure gradient = 0.00680155
smoothSolver:  Solving for omega, Initial residual = 7.58957e-06, Final residual = 7.58957e-06, No Iterations 0
smoothSolver:  Solving for k, Initial residual = 0.0034509, Final residual = 0.000201349, No Iterations 5
ExecutionTime = 0.134541 s  ClockTime = 0 s

Time = 60s

smoothSolver:  Solving for Ux, Initial residual = 0.000255417, Final residual = 2.03552e-05, No Iterations 6
smoothSolver:  Solving for Uy, Initial residual = 0.14712, Final residual = 0.00607384, No Iterations 3
Pressure gradient source: uncorrected Ubar = 1.00001, pressure gradient = 0.00671441
GAMG:  Solving for p, Initial residual = 0.0577829, Final residual = 0.00415949, No Iterations 3
time step continuity errors : sum local = 3.13134e-07, global = -6.67495e-18, cumulative = 7.19981e-17
Pressure gradient source: uncorrected Ubar = 1, pressure gradient = 0.00679133
smoothSolver:  Solving for omega, Initial residual = 7.57207e-06, Final residual = 7.57207e-06, No Iterations 0
smoothSolver:  Solving for k, Initial residual = 0.00340813, Final residual = 0.000299641, No Iterations 4
ExecutionTime = 0.13673 s  ClockTime = 0 s

Time = 61s

smoothSolver:  Solving for Ux, Initial residual = 0.000255098, Final residual = 2.03681e-05, No Iterations 6
smoothSolver:  Solving for Uy, Initial residual = 0.10315, Final residual = 0.00469524, No Iterations 3
Pressure gradient source: uncorrected Ubar = 1.00001, pressure gradient = 0.00671318
GAMG:  Solving for p, Initial residual = 0.0349259, Final residual = 0.00339764, No Iterations 4
time step continuity errors : sum local = 2.46358e-07, global = 5.95625e-18, cumulative = 7.79544e-17
Pressure gradient source: uncorrected Ubar = 1, pressure gradient = 0.00678215
smoothSolver:  Solving for omega, Initial residual = 7.55505e-06, Final residual = 7.55505e-06, No Iterations 0
smoothSolver:  Solving for k, Initial residual = 0.00339801, Final residual = 0.000209772, No Iterations 5
ExecutionTime = 0.138755 s  ClockTime = 0 s

Time = 62s

smoothSolver:  Solving for Ux, Initial residual = 0.00025553, Final residual = 2.04542e-05, No Iterations 6
smoothSolver:  Solving for Uy, Initial residual = 0.0501485, Final residual = 0.00198315, No Iterations 3
Pressure gradient source: uncorrected Ubar = 1.00001, pressure gradient = 0.00670012
GAMG:  Solving for p, Initial residual = 0.0259686, Final residual = 0.00152963, No Iterations 3
time step continuity errors : sum local = 1.08164e-07, global = 3.22506e-19, cumulative = 7.82769e-17
Pressure gradient source: uncorrected Ubar = 1, pressure gradient = 0.00677232
smoothSolver:  Solving for omega, Initial residual = 7.53691e-06, Final residual = 7.53691e-06, No Iterations 0
smoothSolver:  Solving for k, Initial residual = 0.00337578, Final residual = 0.000251328, No Iterations 5
ExecutionTime = 0.141091 s  ClockTime = 1 s

Time = 63s

smoothSolver:  Solving for Ux, Initial residual = 0.000256094, Final residual = 2.05852e-05, No Iterations 6
smoothSolver:  Solving for Uy, Initial residual = 0.0582152, Final residual = 0.0025624, No Iterations 3
Pressure gradient source: uncorrected Ubar = 1.00001, pressure gradient = 0.00669013
GAMG:  Solving for p, Initial residual = 0.0212078, Final residual = 0.0012926, No Iterations 3
time step continuity errors : sum local = 8.6401e-08, global = 1.11178e-17, cumulative = 8.93946e-17
Pressure gradient source: uncorrected Ubar = 1, pressure gradient = 0.00676234
smoothSolver:  Solving for omega, Initial residual = 7.51906e-06, Final residual = 7.51906e-06, No Iterations 0
smoothSolver:  Solving for k, Initial residual = 0.00333644, Final residual = 0.00023451, No Iterations 5
ExecutionTime = 0.143151 s  ClockTime = 1 s

Time = 64s

smoothSolver:  Solving for Ux, Initial residual = 0.000256412, Final residual = 2.06527e-05, No Iterations 6
smoothSolver:  Solving for Uy, Initial residual = 0.0586941, Final residual = 0.00250941, No Iterations 3
Pressure gradient source: uncorrected Ubar = 1.00001, pressure gradient = 0.00668588
GAMG:  Solving for p, Initial residual = 0.0244497, Final residual = 0.00210398, No Iterations 2
time step continuity errors : sum local = 1.39664e-07, global = 1.6956e-18, cumulative = 9.10902e-17
Pressure gradient source: uncorrected Ubar = 1, pressure gradient = 0.00675298
smoothSolver:  Solving for omega, Initial residual = 7.49991e-06, Final residual = 7.49991e-06, No Iterations 0
smoothSolver:  Solving for k, Initial residual = 0.00327474, Final residual = 0.000307413, No Iterations 4
ExecutionTime = 0.145375 s  ClockTime = 1 s

Time = 65s

smoothSolver:  Solving for Ux, Initial residual = 0.000254852, Final residual = 2.05638e-05, No Iterations 6
smoothSolver:  Solving for Uy, Initial residual = 0.128269, Final residual = 0.00662867, No Iterations 3
Pressure gradient source: uncorrected Ubar = 1.00001, pressure gradient = 0.00668875
GAMG:  Solving for p, Initial residual = 0.0500142, Final residual = 0.00395771, No Iterations 4
time step continuity errors : sum local = 2.63126e-07, global = -2.89594e-18, cumulative = 8.81943e-17
Pressure gradient source: uncorrected Ubar = 1, pressure gradient = 0.00674511
smoothSolver:  Solving for omega, Initial residual = 7.48192e-06, Final residual = 7.48192e-06, No Iterations 0
smoothSolver:  Solving for k, Initial residual = 0.00323522, Final residual = 0.000295582, No Iterations 4
ExecutionTime = 0.14748 s  ClockTime = 1 s

Time = 66s

smoothSolver:  Solving for Ux, Initial residual = 0.000253257, Final residual = 2.04831e-05, No Iterations 6
smoothSolver:  Solving for Uy, Initial residual = 0.102298, Final residual = 0.0049968, No Iterations 3
Pressure gradient source: uncorrected Ubar = 1.00001, pressure gradient = 0.00668165
GAMG:  Solving for p, Initial residual = 0.040406, Final residual = 0.0021848, No Iterations 5
time step continuity errors : sum local = 1.35265e-07, global = 4.74869e-18, cumulative = 9.2943e-17
Pressure gradient source: uncorrected Ubar = 1, pressure gradient = 0.00673726
smoothSolver:  Solving for omega, Initial residual = 7.46782e-06, Final residual = 7.46782e-06, No Iterations 0
smoothSolver:  Solving for k, Initial residual = 0.00320834, Final residual = 0.000197926, No Iterations 5
ExecutionTime = 0.149555 s  ClockTime = 1 s

Time = 67s

smoothSolver:  Solving for Ux, Initial residual = 0.000251936, Final residual = 2.03963e-05, No Iterations 6
smoothSolver:  Solving for Uy, Initial residual = 0.055881, Final residual = 0.00286588, No Iterations 3
Pressure gradient source: uncorrected Ubar = 1.00001, pressure gradient = 0.00667323
GAMG:  Solving for p, Initial residual = 0.0228851, Final residual = 0.00216552, No Iterations 4
time step continuity errors : sum local = 1.36279e-07, global = 2.30349e-18, cumulative = 9.52465e-17
Pressure gradient source: uncorrected Ubar = 1, pressure gradient = 0.00672927
smoothSolver:  Solving for omega, Initial residual = 7.45019e-06, Final residual = 7.45019e-06, No Iterations 0
smoothSolver:  Solving for k, Initial residual = 0.00317438, Final residual = 0.000200475, No Iterations 5
ExecutionTime = 0.151475 s  ClockTime = 1 s

Time = 68s

smoothSolver:  Solving for Ux, Initial residual = 0.000251621, Final residual = 2.03677e-05, No Iterations 6
smoothSolver:  Solving for Uy, Initial residual = 0.0351451, Final residual = 0.00307707, No Iterations 2
Pressure gradient source: uncorrected Ubar = 1.00001, pressure gradient = 0.00666644
GAMG:  Solving for p, Initial residual = 0.0201504, Final residual = 0.00139241, No Iterations 3
time step continuity errors : sum local = 7.90667e-08, global = -9.11519e-18, cumulative = 8.61313e-17
Pressure gradient source: uncorrected Ubar = 1, pressure gradient = 0.00672136
smoothSolver:  Solving for omega, Initial residual = 7.43327e-06, Final residual = 7.43327e-06, No Iterations 0
smoothSolver:  Solving for k, Initial residual = 0.00316146, Final residual = 0.000247455, No Iterations 5
ExecutionTime = 0.15361 s  ClockTime = 1 s

Time = 69s

smoothSolver:  Solving for Ux, Initial residual = 0.000250661, Final residual = 2.03343e-05, No Iterations 6
smoothSolver:  Solving for Uy, Initial residual = 0.0375791, Final residual = 0.00212314, No Iterations 3
Pressure gradient source: uncorrected Ubar = 1.00001, pressure gradient = 0.00665914
GAMG:  Solving for p, Initial residual = 0.0187561, Final residual = 0.00181106, No Iterations 4
time step continuity errors : sum local = 1.03609e-07, global = -8.6334e-18, cumulative = 7.74979e-17
Pressure gradient source: uncorrected Ubar = 1, pressure gradient = 0.00671346
smoothSolver:  Solving for omega, Initial residual = 7.41731e-06, Final residual = 7.41731e-06, No Iterations 0
smoothSolver:  Solving for k, Initial residual = 0.00311228, Final residual = 0.000216463, No Iterations 5
ExecutionTime = 0.15576 s  ClockTime = 1 s

Time = 70s

smoothSolver:  Solving for Ux, Initial residual = 0.000249163, Final residual = 2.02274e-05, No Iterations 6
smoothSolver:  Solving for Uy, Initial residual = 0.0608377, Final residual = 0.00328258, No Iterations 3
Pressure gradient source: uncorrected Ubar = 1, pressure gradient = 0.00665678
GAMG:  Solving for p, Initial residual = 0.0380134, Final residual = 0.00297373, No Iterations 3
time step continuity errors : sum local = 1.62041e-07, global = 1.12766e-17, cumulative = 8.87745e-17
Pressure gradient source: uncorrected Ubar = 1, pressure gradient = 0.00670621
smoothSolver:  Solving for omega, Initial residual = 7.40153e-06, Final residual = 7.40153e-06, No Iterations 0
smoothSolver:  Solving for k, Initial residual = 0.00304016, Final residual = 0.000277934, No Iterations 4
ExecutionTime = 0.158078 s  ClockTime = 1 s

Time = 71s

smoothSolver:  Solving for Ux, Initial residual = 0.000246721, Final residual = 2.00411e-05, No Iterations 6
smoothSolver:  Solving for Uy, Initial residual = 0.0715776, Final residual = 0.00318742, No Iterations 3
Pressure gradient source: uncorrected Ubar = 1, pressure gradient = 0.00665732
GAMG:  Solving for p, Initial residual = 0.0352835, Final residual = 0.00213785, No Iterations 3
time step continuity errors : sum local = 1.14302e-07, global = 9.04097e-19, cumulative = 8.96786e-17
Pressure gradient source: uncorrected Ubar = 1, pressure gradient = 0.00669994
smoothSolver:  Solving for omega, Initial residual = 7.38463e-06, Final residual = 7.38463e-06, No Iterations 0
smoothSolver:  Solving for k, Initial residual = 0.00298647, Final residual = 0.00027259, No Iterations 4
ExecutionTime = 0.16008 s  ClockTime = 1 s

Time = 72s

smoothSolver:  Solving for Ux, Initial residual = 0.000244476, Final residual = 1.98483e-05, No Iterations 6
smoothSolver:  Solving for Uy, Initial residual = 0.0533868, Final residual = 0.00263722, No Iterations 3
Pressure gradient source: uncorrected Ubar = 1, pressure gradient = 0.00665265
GAMG:  Solving for p, Initial residual = 0.0252431, Final residual = 0.00187774, No Iterations 3
time step continuity errors : sum local = 9.87745e-08, global = -2.32584e-18, cumulative = 8.73528e-17
Pressure gradient source: uncorrected Ubar = 1, pressure gradient = 0.00669384
smoothSolver:  Solving for omega, Initial residual = 7.36737e-06, Final residual = 7.36737e-06, No Iterations 0
smoothSolver:  Solving for k, Initial residual = 0.00299867, Final residual = 0.000220418, No Iterations 5
ExecutionTime = 0.162073 s  ClockTime = 1 s

Time = 73s

smoothSolver:  Solving for Ux, Initial residual = 0.000242535, Final residual = 1.97354e-05, No Iterations 6
smoothSolver:  Solving for Uy, Initial residual = 0.0422991, Final residual = 0.00210419, No Iterations 3
Pressure gradient source: uncorrected Ubar = 1, pressure gradient = 0.00664178
GAMG:  Solving for p, Initial residual = 0.0174364, Final residual = 0.00147112, No Iterations 3
time step continuity errors : sum local = 7.35206e-08, global = 1.45936e-18, cumulative = 8.88121e-17
Pressure gradient source: uncorrected Ubar = 1, pressure gradient = 0.00668708
smoothSolver:  Solving for omega, Initial residual = 7.35124e-06, Final residual = 7.35124e-06, No Iterations 0
smoothSolver:  Solving for k, Initial residual = 0.00294928, Final residual = 0.000192327, No Iterations 5
ExecutionTime = 0.163985 s  ClockTime = 1 s

Time = 74s

smoothSolver:  Solving for Ux, Initial residual = 0.000240688, Final residual = 1.95924e-05, No Iterations 6
smoothSolver:  Solving for Uy, Initial residual = 0.0378857, Final residual = 0.00148514, No Iterations 3
Pressure gradient source: uncorrected Ubar = 1, pressure gradient = 0.00663868
GAMG:  Solving for p, Initial residual = 0.0242637, Final residual = 0.00180689, No Iterations 4
time step continuity errors : sum local = 8.65233e-08, global = -2.99271e-19, cumulative = 8.85128e-17
Pressure gradient source: uncorrected Ubar = 1, pressure gradient = 0.00668076
smoothSolver:  Solving for omega, Initial residual = 7.3348e-06, Final residual = 7.3348e-06, No Iterations 0
smoothSolver:  Solving for k, Initial residual = 0.00290032, Final residual = 0.000185904, No Iterations 5
ExecutionTime = 0.165935 s  ClockTime = 1 s

Time = 75s

smoothSolver:  Solving for Ux, Initial residual = 0.000238157, Final residual = 1.93804e-05, No Iterations 6
smoothSolver:  Solving for Uy, Initial residual = 0.0361128, Final residual = 0.00183284, No Iterations 3
Pressure gradient source: uncorrected Ubar = 1, pressure gradient = 0.00663587
GAMG:  Solving for p, Initial residual = 0.0303284, Final residual = 0.00276278, No Iterations 3
time step continuity errors : sum local = 1.31528e-07, global = 9.5572e-19, cumulative = 8.94686e-17
Pressure gradient source: uncorrected Ubar = 1, pressure gradient = 0.00667486
smoothSolver:  Solving for omega, Initial residual = 7.31985e-06, Final residual = 7.31985e-06, No Iterations 0
smoothSolver:  Solving for k, Initial residual = 0.00284853, Final residual = 0.000177618, No Iterations 5
ExecutionTime = 0.167815 s  ClockTime = 1 s

Time = 76s

smoothSolver:  Solving for Ux, Initial residual = 0.00023506, Final residual = 1.91562e-05, No Iterations 6
smoothSolver:  Solving for Uy, Initial residual = 0.048842, Final residual = 0.00246054, No Iterations 3
Pressure gradient source: uncorrected Ubar = 1, pressure gradient = 0.00663124
GAMG:  Solving for p, Initial residual = 0.0303296, Final residual = 0.00294469, No Iterations 3
time step continuity errors : sum local = 1.36549e-07, global = 8.195e-18, cumulative = 9.76636e-17
Pressure gradient source: uncorrected Ubar = 1, pressure gradient = 0.00666911
smoothSolver:  Solving for omega, Initial residual = 7.30667e-06, Final residual = 7.30667e-06, No Iterations 0
smoothSolver:  Solving for k, Initial residual = 0.00283023, Final residual = 0.000184306, No Iterations 5
ExecutionTime = 0.169958 s  ClockTime = 1 s

Time = 77s

smoothSolver:  Solving for Ux, Initial residual = 0.000232829, Final residual = 1.89665e-05, No Iterations 6
smoothSolver:  Solving for Uy, Initial residual = 0.0610293, Final residual = 0.00320302, No Iterations 3
Pressure gradient source: uncorrected Ubar = 1, pressure gradient = 0.0066264
GAMG:  Solving for p, Initial residual = 0.0381563, Final residual = 0.00240723, No Iterations 3
time step continuity errors : sum local = 1.07412e-07, global = 5.62708e-18, cumulative = 1.03291e-16
Pressure gradient source: uncorrected Ubar = 1, pressure gradient = 0.00666346
smoothSolver:  Solving for omega, Initial residual = 7.29148e-06, Final residual = 7.29148e-06, No Iterations 0
smoothSolver:  Solving for k, Initial residual = 0.00277846, Final residual = 0.000160172, No Iterations 5
ExecutionTime = 0.172003 s  ClockTime = 1 s

Time = 78s

smoothSolver:  Solving for Ux, Initial residual = 0.000230261, Final residual = 1.87536e-05, No Iterations 6
smoothSolver:  Solving for Uy, Initial residual = 0.0559505, Final residual = 0.00346922, No Iterations 3
Pressure gradient source: uncorrected Ubar = 1, pressure gradient = 0.00662376
GAMG:  Solving for p, Initial residual = 0.0340793, Final residual = 0.00324511, No Iterations 3
time step continuity errors : sum local = 1.48147e-07, global = 6.53043e-18, cumulative = 1.09821e-16
Pressure gradient source: uncorrected Ubar = 1, pressure gradient = 0.00665818
smoothSolver:  Solving for omega, Initial residual = 7.2751e-06, Final residual = 7.2751e-06, No Iterations 0
smoothSolver:  Solving for k, Initial residual = 0.00273284, Final residual = 0.000168113, No Iterations 5
ExecutionTime = 0.174312 s  ClockTime = 1 s

Time = 79s

smoothSolver:  Solving for Ux, Initial residual = 0.000227333, Final residual = 1.8532e-05, No Iterations 6
smoothSolver:  Solving for Uy, Initial residual = 0.0612989, Final residual = 0.00301878, No Iterations 3
Pressure gradient source: uncorrected Ubar = 1, pressure gradient = 0.00661905
GAMG:  Solving for p, Initial residual = 0.0246496, Final residual = 0.00149161, No Iterations 3
time step continuity errors : sum local = 6.72485e-08, global = 5.80778e-18, cumulative = 1.15629e-16
Pressure gradient source: uncorrected Ubar = 1, pressure gradient = 0.00665296
smoothSolver:  Solving for omega, Initial residual = 7.26173e-06, Final residual = 7.26173e-06, No Iterations 0
smoothSolver:  Solving for k, Initial residual = 0.00269445, Final residual = 0.000168283, No Iterations 5
ExecutionTime = 0.176336 s  ClockTime = 1 s

Time = 80s

smoothSolver:  Solving for Ux, Initial residual = 0.000223968, Final residual = 1.82706e-05, No Iterations 6
smoothSolver:  Solving for Uy, Initial residual = 0.0493389, Final residual = 0.00213576, No Iterations 3
Pressure gradient source: uncorrected Ubar = 1, pressure gradient = 0.00661605
GAMG:  Solving for p, Initial residual = 0.0328407, Final residual = 0.00299609, No Iterations 3
time step continuity errors : sum local = 1.27907e-07, global = -1.26433e-17, cumulative = 1.02986e-16
Pressure gradient source: uncorrected Ubar = 1, pressure gradient = 0.00664802
smoothSolver:  Solving for omega, Initial residual = 7.24839e-06, Final residual = 7.24839e-06, No Iterations 0
smoothSolver:  Solving for k, Initial residual = 0.00267524, Final residual = 0.000173692, No Iterations 5
ExecutionTime = 0.178298 s  ClockTime = 1 s

Time = 81s

smoothSolver:  Solving for Ux, Initial residual = 0.000221343, Final residual = 1.80397e-05, No Iterations 6
smoothSolver:  Solving for Uy, Initial residual = 0.045934, Final residual = 0.0019512, No Iterations 3
Pressure gradient source: uncorrected Ubar = 1, pressure gradient = 0.00661179
GAMG:  Solving for p, Initial residual = 0.0269043, Final residual = 0.00221677, No Iterations 3
time step continuity errors : sum local = 8.99565e-08, global = -4.91994e-18, cumulative = 9.80657e-17
Pressure gradient source: uncorrected Ubar = 1, pressure gradient = 0.00664316
smoothSolver:  Solving for omega, Initial residual = 7.23401e-06, Final residual = 7.23401e-06, No Iterations 0
smoothSolver:  Solving for k, Initial residual = 0.00263503, Final residual = 0.000170699, No Iterations 5
ExecutionTime = 0.180176 s  ClockTime = 1 s

Time = 82s

smoothSolver:  Solving for Ux, Initial residual = 0.00021847, Final residual = 1.78067e-05, No Iterations 6
smoothSolver:  Solving for Uy, Initial residual = 0.0458938, Final residual = 0.00243333, No Iterations 3
Pressure gradient source: uncorrected Ubar = 1, pressure gradient = 0.00660794
GAMG:  Solving for p, Initial residual = 0.0232767, Final residual = 0.00230178, No Iterations 3
time step continuity errors : sum local = 9.07745e-08, global = 8.0856e-18, cumulative = 1.06151e-16
Pressure gradient source: uncorrected Ubar = 1, pressure gradient = 0.00663843
smoothSolver:  Solving for omega, Initial residual = 7.22106e-06, Final residual = 7.22106e-06, No Iterations 0
smoothSolver:  Solving for k, Initial residual = 0.00258368, Final residual = 0.000162526, No Iterations 5
ExecutionTime = 0.182098 s  ClockTime = 1 s

Time = 83s

smoothSolver:  Solving for Ux, Initial residual = 0.000215252, Final residual = 1.7557e-05, No Iterations 6
smoothSolver:  Solving for Uy, Initial residual = 0.0544087, Final residual = 0.00272627, No Iterations 3
Pressure gradient source: uncorrected Ubar = 1, pressure gradient = 0.00660473
GAMG:  Solving for p, Initial residual = 0.0288245, Final residual = 0.00199549, No Iterations 3
time step continuity errors : sum local = 7.75963e-08, global = -2.72276e-18, cumulative = 1.03428e-16
Pressure gradient source: uncorrected Ubar = 1, pressure gradient = 0.00663389
smoothSolver:  Solving for omega, Initial residual = 7.20787e-06, Final residual = 7.20787e-06, No Iterations 0
smoothSolver:  Solving for k, Initial residual = 0.0025345, Final residual = 0.000237737, No Iterations 4
ExecutionTime = 0.184 s  ClockTime = 1 s

Time = 84s

smoothSolver:  Solving for Ux, Initial residual = 0.000211926, Final residual = 1.72821e-05, No Iterations 6
smoothSolver:  Solving for Uy, Initial residual = 0.0567412, Final residual = 0.00278877, No Iterations 3
Pressure gradient source: uncorrected Ubar = 1, pressure gradient = 0.00660346
GAMG:  Solving for p, Initial residual = 0.0292511, Final residual = 0.00227035, No Iterations 3
time step continuity errors : sum local = 8.52217e-08, global = -6.81953e-18, cumulative = 9.6609e-17
Pressure gradient source: uncorrected Ubar = 1, pressure gradient = 0.00662977
smoothSolver:  Solving for omega, Initial residual = 7.19364e-06, Final residual = 7.19364e-06, No Iterations 0
smoothSolver:  Solving for k, Initial residual = 0.00252036, Final residual = 0.000162672, No Iterations 5
ExecutionTime = 0.186009 s  ClockTime = 1 s

Time = 85s

smoothSolver:  Solving for Ux, Initial residual = 0.000209134, Final residual = 1.70302e-05, No Iterations 6
smoothSolver:  Solving for Uy, Initial residual = 0.0436294, Final residual = 0.00206655, No Iterations 3
Pressure gradient source: uncorrected Ubar = 1, pressure gradient = 0.00659825
GAMG:  Solving for p, Initial residual = 0.0315417, Final residual = 0.00276431, No Iterations 3
time step continuity errors : sum local = 1.02748e-07, global = -7.17331e-18, cumulative = 8.94357e-17
Pressure gradient source: uncorrected Ubar = 1, pressure gradient = 0.00662551
smoothSolver:  Solving for omega, Initial residual = 7.18032e-06, Final residual = 7.18032e-06, No Iterations 0
smoothSolver:  Solving for k, Initial residual = 0.00248433, Final residual = 0.000162235, No Iterations 5
ExecutionTime = 0.187919 s  ClockTime = 1 s

Time = 86s

smoothSolver:  Solving for Ux, Initial residual = 0.000206088, Final residual = 1.67929e-05, No Iterations 6
smoothSolver:  Solving for Uy, Initial residual = 0.0456511, Final residual = 0.00304766, No Iterations 3
Pressure gradient source: uncorrected Ubar = 1, pressure gradient = 0.00659421
GAMG:  Solving for p, Initial residual = 0.0243369, Final residual = 0.00210386, No Iterations 3
time step continuity errors : sum local = 7.72302e-08, global = -4.6813e-18, cumulative = 8.47543e-17
Pressure gradient source: uncorrected Ubar = 1, pressure gradient = 0.00662128
smoothSolver:  Solving for omega, Initial residual = 7.16805e-06, Final residual = 7.16805e-06, No Iterations 0
smoothSolver:  Solving for k, Initial residual = 0.00244576, Final residual = 0.000157381, No Iterations 5
ExecutionTime = 0.190349 s  ClockTime = 1 s

Time = 87s

smoothSolver:  Solving for Ux, Initial residual = 0.000203016, Final residual = 1.65469e-05, No Iterations 6
smoothSolver:  Solving for Uy, Initial residual = 0.0321035, Final residual = 0.00165264, No Iterations 3
Pressure gradient source: uncorrected Ubar = 1, pressure gradient = 0.0065911
GAMG:  Solving for p, Initial residual = 0.0267678, Final residual = 0.00193047, No Iterations 3
time step continuity errors : sum local = 6.89538e-08, global = -6.6684e-18, cumulative = 7.8086e-17
Pressure gradient source: uncorrected Ubar = 1, pressure gradient = 0.0066172
smoothSolver:  Solving for omega, Initial residual = 7.15653e-06, Final residual = 7.15653e-06, No Iterations 0
smoothSolver:  Solving for k, Initial residual = 0.00239525, Final residual = 0.000143905, No Iterations 5
ExecutionTime = 0.192493 s  ClockTime = 1 s

Time = 88s

smoothSolver:  Solving for Ux, Initial residual = 0.000199499, Final residual = 1.62594e-05, No Iterations 6
smoothSolver:  Solving for Uy, Initial residual = 0.0491694, Final residual = 0.00267651, No Iterations 3
Pressure gradient source: uncorrected Ubar = 1, pressure gradient = 0.00658955
GAMG:  Solving for p, Initial residual = 0.0296828, Final residual = 0.00153903, No Iterations 4
time step continuity errors : sum local = 5.53666e-08, global = -4.02701e-18, cumulative = 7.40589e-17
Pressure gradient source: uncorrected Ubar = 1, pressure gradient = 0.00661345
smoothSolver:  Solving for omega, Initial residual = 7.14356e-06, Final residual = 7.14356e-06, No Iterations 0
smoothSolver:  Solving for k, Initial residual = 0.00237424, Final residual = 0.000144229, No Iterations 5
ExecutionTime = 0.194487 s  ClockTime = 1 s

Time = 89s

smoothSolver:  Solving for Ux, Initial residual = 0.000196333, Final residual = 1.60011e-05, No Iterations 6
smoothSolver:  Solving for Uy, Initial residual = 0.0405567, Final residual = 0.00233045, No Iterations 3
Pressure gradient source: uncorrected Ubar = 1, pressure gradient = 0.00658577
GAMG:  Solving for p, Initial residual = 0.0199586, Final residual = 0.00102218, No Iterations 3
time step continuity errors : sum local = 3.67605e-08, global = 1.35623e-17, cumulative = 8.76212e-17
Pressure gradient source: uncorrected Ubar = 1, pressure gradient = 0.0066097
smoothSolver:  Solving for omega, Initial residual = 7.13118e-06, Final residual = 7.13118e-06, No Iterations 0
[...]
Pressure gradient source: uncorrected Ubar = 1, pressure gradient = 0.00644144
smoothSolver:  Solving for omega, Initial residual = 6.95888e-06, Final residual = 6.95888e-06, No Iterations 0
smoothSolver:  Solving for k, Initial residual = 0.000641381, Final residual = 3.83517e-05, No Iterations 5
ExecutionTime = 0.627603 s  ClockTime = 1 s

Time = 267s

smoothSolver:  Solving for Ux, Initial residual = 1.51204e-05, Final residual = 9.76801e-06, No Iterations 1
smoothSolver:  Solving for Uy, Initial residual = 0.0348234, Final residual = 0.00152577, No Iterations 3
Pressure gradient source: uncorrected Ubar = 1, pressure gradient = 0.00644363
GAMG:  Solving for p, Initial residual = 0.00999172, Final residual = 0.000987251, No Iterations 4
time step continuity errors : sum local = 1.28117e-08, global = -7.63909e-18, cumulative = 2.01012e-16
Pressure gradient source: uncorrected Ubar = 1, pressure gradient = 0.00644127
smoothSolver:  Solving for omega, Initial residual = 6.959e-06, Final residual = 6.959e-06, No Iterations 0
smoothSolver:  Solving for k, Initial residual = 0.000640128, Final residual = 3.70461e-05, No Iterations 5
ExecutionTime = 0.629597 s  ClockTime = 1 s

Time = 268s

smoothSolver:  Solving for Ux, Initial residual = 1.50709e-05, Final residual = 9.74122e-06, No Iterations 1
smoothSolver:  Solving for Uy, Initial residual = 0.0335536, Final residual = 0.00145426, No Iterations 3
Pressure gradient source: uncorrected Ubar = 1, pressure gradient = 0.00644347
GAMG:  Solving for p, Initial residual = 0.00887547, Final residual = 0.000783807, No Iterations 5
time step continuity errors : sum local = 1.0123e-08, global = 2.3338e-18, cumulative = 2.03346e-16
Pressure gradient source: uncorrected Ubar = 1, pressure gradient = 0.0064411
smoothSolver:  Solving for omega, Initial residual = 6.95891e-06, Final residual = 6.95891e-06, No Iterations 0
smoothSolver:  Solving for k, Initial residual = 0.000640349, Final residual = 3.80461e-05, No Iterations 5
ExecutionTime = 0.631604 s  ClockTime = 1 s

Time = 269s

smoothSolver:  Solving for Ux, Initial residual = 1.50054e-05, Final residual = 9.70286e-06, No Iterations 1
smoothSolver:  Solving for Uy, Initial residual = 0.0292182, Final residual = 0.00128423, No Iterations 3
Pressure gradient source: uncorrected Ubar = 1, pressure gradient = 0.0064433
GAMG:  Solving for p, Initial residual = 0.00844028, Final residual = 0.000546168, No Iterations 4
time step continuity errors : sum local = 7.45005e-09, global = 2.11951e-18, cumulative = 2.05465e-16
Pressure gradient source: uncorrected Ubar = 1, pressure gradient = 0.00644094
smoothSolver:  Solving for omega, Initial residual = 6.95899e-06, Final residual = 6.95899e-06, No Iterations 0
smoothSolver:  Solving for k, Initial residual = 0.000638346, Final residual = 3.82811e-05, No Iterations 5
ExecutionTime = 0.633575 s  ClockTime = 1 s

Time = 270s

smoothSolver:  Solving for Ux, Initial residual = 1.49608e-05, Final residual = 9.67743e-06, No Iterations 1
smoothSolver:  Solving for Uy, Initial residual = 0.0276381, Final residual = 0.00116695, No Iterations 3
Pressure gradient source: uncorrected Ubar = 1, pressure gradient = 0.00644315
GAMG:  Solving for p, Initial residual = 0.00704883, Final residual = 0.000494559, No Iterations 4
time step continuity errors : sum local = 6.73945e-09, global = 5.47504e-18, cumulative = 2.1094e-16
Pressure gradient source: uncorrected Ubar = 1, pressure gradient = 0.00644078
smoothSolver:  Solving for omega, Initial residual = 6.95901e-06, Final residual = 6.95901e-06, No Iterations 0
smoothSolver:  Solving for k, Initial residual = 0.000631282, Final residual = 5.78909e-05, No Iterations 4
ExecutionTime = 0.635607 s  ClockTime = 1 s

Time = 271s

smoothSolver:  Solving for Ux, Initial residual = 1.48878e-05, Final residual = 9.6332e-06, No Iterations 1
smoothSolver:  Solving for Uy, Initial residual = 0.0205044, Final residual = 0.00083621, No Iterations 3
Pressure gradient source: uncorrected Ubar = 1, pressure gradient = 0.00644304
GAMG:  Solving for p, Initial residual = 0.00703724, Final residual = 0.000384824, No Iterations 4
time step continuity errors : sum local = 5.20222e-09, global = 4.32601e-18, cumulative = 2.15266e-16
Pressure gradient source: uncorrected Ubar = 1, pressure gradient = 0.00644064
smoothSolver:  Solving for omega, Initial residual = 6.95908e-06, Final residual = 6.95908e-06, No Iterations 0
smoothSolver:  Solving for k, Initial residual = 0.000633881, Final residual = 3.68695e-05, No Iterations 5
ExecutionTime = 0.637564 s  ClockTime = 1 s

Time = 272s

smoothSolver:  Solving for Ux, Initial residual = 1.48455e-05, Final residual = 9.60637e-06, No Iterations 1
smoothSolver:  Solving for Uy, Initial residual = 0.0161746, Final residual = 0.000707051, No Iterations 3
Pressure gradient source: uncorrected Ubar = 1, pressure gradient = 0.00644286
GAMG:  Solving for p, Initial residual = 0.0069672, Final residual = 0.000668536, No Iterations 3
time step continuity errors : sum local = 8.92715e-09, global = 9.40063e-18, cumulative = 2.24667e-16
Pressure gradient source: uncorrected Ubar = 1, pressure gradient = 0.00644049
smoothSolver:  Solving for omega, Initial residual = 6.95895e-06, Final residual = 6.95895e-06, No Iterations 0
smoothSolver:  Solving for k, Initial residual = 0.000632782, Final residual = 5.89529e-05, No Iterations 4
ExecutionTime = 0.639621 s  ClockTime = 1 s

Time = 273s

smoothSolver:  Solving for Ux, Initial residual = 1.47753e-05, Final residual = 9.56375e-06, No Iterations 1
smoothSolver:  Solving for Uy, Initial residual = 0.0129967, Final residual = 0.00112399, No Iterations 2
Pressure gradient source: uncorrected Ubar = 1, pressure gradient = 0.00644273
GAMG:  Solving for p, Initial residual = 0.00649332, Final residual = 0.000491471, No Iterations 3
time step continuity errors : sum local = 6.66117e-09, global = -3.79618e-18, cumulative = 2.20871e-16
Pressure gradient source: uncorrected Ubar = 1, pressure gradient = 0.00644035
smoothSolver:  Solving for omega, Initial residual = 6.95897e-06, Final residual = 6.95897e-06, No Iterations 0
smoothSolver:  Solving for k, Initial residual = 0.000633903, Final residual = 4.08289e-05, No Iterations 5
ExecutionTime = 0.641605 s  ClockTime = 1 s

Time = 274s

smoothSolver:  Solving for Ux, Initial residual = 1.4706e-05, Final residual = 9.52566e-06, No Iterations 1
smoothSolver:  Solving for Uy, Initial residual = 0.0121617, Final residual = 0.00116393, No Iterations 2
Pressure gradient source: uncorrected Ubar = 1, pressure gradient = 0.00644256
GAMG:  Solving for p, Initial residual = 0.00595613, Final residual = 0.000201419, No Iterations 4
time step continuity errors : sum local = 2.65651e-09, global = -3.51394e-18, cumulative = 2.17357e-16
Pressure gradient source: uncorrected Ubar = 1, pressure gradient = 0.0064402
smoothSolver:  Solving for omega, Initial residual = 6.95911e-06, Final residual = 6.95911e-06, No Iterations 0
smoothSolver:  Solving for k, Initial residual = 0.000627284, Final residual = 6.04444e-05, No Iterations 4
ExecutionTime = 0.643567 s  ClockTime = 1 s

Time = 275s

smoothSolver:  Solving for Ux, Initial residual = 1.4639e-05, Final residual = 9.48059e-06, No Iterations 1
smoothSolver:  Solving for Uy, Initial residual = 0.01038, Final residual = 0.00102345, No Iterations 2
Pressure gradient source: uncorrected Ubar = 1, pressure gradient = 0.00644245
GAMG:  Solving for p, Initial residual = 0.00642594, Final residual = 0.000545959, No Iterations 3
time step continuity errors : sum local = 7.0194e-09, global = -9.5066e-18, cumulative = 2.0785e-16
Pressure gradient source: uncorrected Ubar = 1, pressure gradient = 0.00644007
smoothSolver:  Solving for omega, Initial residual = 6.95922e-06, Final residual = 6.95922e-06, No Iterations 0
smoothSolver:  Solving for k, Initial residual = 0.00063045, Final residual = 3.91842e-05, No Iterations 5
ExecutionTime = 0.645501 s  ClockTime = 1 s

Time = 276s

smoothSolver:  Solving for Ux, Initial residual = 1.45925e-05, Final residual = 9.4524e-06, No Iterations 1
smoothSolver:  Solving for Uy, Initial residual = 0.010172, Final residual = 0.000453643, No Iterations 3
Pressure gradient source: uncorrected Ubar = 1, pressure gradient = 0.00644228
GAMG:  Solving for p, Initial residual = 0.00615718, Final residual = 0.000610326, No Iterations 3
time step continuity errors : sum local = 7.82102e-09, global = -7.34445e-18, cumulative = 2.00506e-16
Pressure gradient source: uncorrected Ubar = 1, pressure gradient = 0.00643993
smoothSolver:  Solving for omega, Initial residual = 6.95913e-06, Final residual = 6.95913e-06, No Iterations 0
smoothSolver:  Solving for k, Initial residual = 0.000627296, Final residual = 5.91036e-05, No Iterations 4
ExecutionTime = 0.647373 s  ClockTime = 1 s

Time = 277s

smoothSolver:  Solving for Ux, Initial residual = 1.45255e-05, Final residual = 9.41002e-06, No Iterations 1
smoothSolver:  Solving for Uy, Initial residual = 0.0103157, Final residual = 0.000958793, No Iterations 2
Pressure gradient source: uncorrected Ubar = 1, pressure gradient = 0.00644216
GAMG:  Solving for p, Initial residual = 0.00506695, Final residual = 0.000462673, No Iterations 4
time step continuity errors : sum local = 6.16584e-09, global = -1.01661e-17, cumulative = 1.9034e-16
Pressure gradient source: uncorrected Ubar = 1, pressure gradient = 0.0064398
smoothSolver:  Solving for omega, Initial residual = 6.95918e-06, Final residual = 6.95918e-06, No Iterations 0
smoothSolver:  Solving for k, Initial residual = 0.000626909, Final residual = 3.60573e-05, No Iterations 5
ExecutionTime = 0.649282 s  ClockTime = 1 s

Time = 278s

smoothSolver:  Solving for Ux, Initial residual = 1.44571e-05, Final residual = 9.3715e-06, No Iterations 1
smoothSolver:  Solving for Uy, Initial residual = 0.0115595, Final residual = 0.00114051, No Iterations 2
Pressure gradient source: uncorrected Ubar = 1, pressure gradient = 0.00644201
GAMG:  Solving for p, Initial residual = 0.00598713, Final residual = 0.000502993, No Iterations 4
time step continuity errors : sum local = 6.62118e-09, global = 2.74072e-18, cumulative = 1.93081e-16
Pressure gradient source: uncorrected Ubar = 1, pressure gradient = 0.00643966
smoothSolver:  Solving for omega, Initial residual = 6.95925e-06, Final residual = 6.95925e-06, No Iterations 0
smoothSolver:  Solving for k, Initial residual = 0.00062112, Final residual = 5.71254e-05, No Iterations 4
ExecutionTime = 0.651179 s  ClockTime = 1 s

Time = 279s

smoothSolver:  Solving for Ux, Initial residual = 1.43912e-05, Final residual = 9.32779e-06, No Iterations 1
smoothSolver:  Solving for Uy, Initial residual = 0.0155856, Final residual = 0.000521709, No Iterations 3
Pressure gradient source: uncorrected Ubar = 1, pressure gradient = 0.00644191
GAMG:  Solving for p, Initial residual = 0.00529162, Final residual = 0.000425783, No Iterations 5
time step continuity errors : sum local = 5.41545e-09, global = 1.27785e-17, cumulative = 2.05859e-16
Pressure gradient source: uncorrected Ubar = 1, pressure gradient = 0.00643954
smoothSolver:  Solving for omega, Initial residual = 6.95929e-06, Final residual = 6.95929e-06, No Iterations 0
smoothSolver:  Solving for k, Initial residual = 0.000627593, Final residual = 4.33726e-05, No Iterations 5
ExecutionTime = 0.6532 s  ClockTime = 1 s

Time = 280s

smoothSolver:  Solving for Ux, Initial residual = 1.4347e-05, Final residual = 9.30032e-06, No Iterations 1
smoothSolver:  Solving for Uy, Initial residual = 0.0166781, Final residual = 0.000575565, No Iterations 3
Pressure gradient source: uncorrected Ubar = 1, pressure gradient = 0.00644172
GAMG:  Solving for p, Initial residual = 0.00571068, Final residual = 0.0004421, No Iterations 5
time step continuity errors : sum local = 5.57792e-09, global = -8.06644e-19, cumulative = 2.05052e-16
Pressure gradient source: uncorrected Ubar = 1, pressure gradient = 0.00643939
smoothSolver:  Solving for omega, Initial residual = 6.95921e-06, Final residual = 6.95921e-06, No Iterations 0
smoothSolver:  Solving for k, Initial residual = 0.000624154, Final residual = 3.63886e-05, No Iterations 5
ExecutionTime = 0.655313 s  ClockTime = 1 s

Time = 281s

smoothSolver:  Solving for Ux, Initial residual = 1.4285e-05, Final residual = 9.26091e-06, No Iterations 1
smoothSolver:  Solving for Uy, Initial residual = 0.0140753, Final residual = 0.00126269, No Iterations 2
Pressure gradient source: uncorrected Ubar = 1, pressure gradient = 0.00644159
GAMG:  Solving for p, Initial residual = 0.00447538, Final residual = 0.000393344, No Iterations 5
time step continuity errors : sum local = 4.90197e-09, global = 1.02445e-18, cumulative = 2.06077e-16
Pressure gradient source: uncorrected Ubar = 1, pressure gradient = 0.00643926
smoothSolver:  Solving for omega, Initial residual = 6.95926e-06, Final residual = 6.95926e-06, No Iterations 0
smoothSolver:  Solving for k, Initial residual = 0.000622485, Final residual = 3.7508e-05, No Iterations 5
ExecutionTime = 0.657603 s  ClockTime = 1 s

Time = 282s

smoothSolver:  Solving for Ux, Initial residual = 1.42155e-05, Final residual = 9.2203e-06, No Iterations 1
smoothSolver:  Solving for Uy, Initial residual = 0.0110982, Final residual = 0.00104768, No Iterations 2
Pressure gradient source: uncorrected Ubar = 1, pressure gradient = 0.00644146
GAMG:  Solving for p, Initial residual = 0.0047011, Final residual = 0.000389901, No Iterations 4
time step continuity errors : sum local = 5.073e-09, global = 1.28175e-17, cumulative = 2.18894e-16
Pressure gradient source: uncorrected Ubar = 1, pressure gradient = 0.00643913
smoothSolver:  Solving for omega, Initial residual = 6.95931e-06, Final residual = 6.95931e-06, No Iterations 0
smoothSolver:  Solving for k, Initial residual = 0.000618252, Final residual = 5.95922e-05, No Iterations 4
ExecutionTime = 0.659861 s  ClockTime = 1 s

Time = 283s

smoothSolver:  Solving for Ux, Initial residual = 1.41466e-05, Final residual = 9.17595e-06, No Iterations 1
smoothSolver:  Solving for Uy, Initial residual = 0.0129101, Final residual = 0.0011544, No Iterations 2
Pressure gradient source: uncorrected Ubar = 1, pressure gradient = 0.00644135
GAMG:  Solving for p, Initial residual = 0.00610864, Final residual = 0.000334426, No Iterations 4
time step continuity errors : sum local = 4.26527e-09, global = -8.33251e-19, cumulative = 2.18061e-16
Pressure gradient source: uncorrected Ubar = 1, pressure gradient = 0.00643901
smoothSolver:  Solving for omega, Initial residual = 6.95936e-06, Final residual = 6.95936e-06, No Iterations 0
smoothSolver:  Solving for k, Initial residual = 0.000619009, Final residual = 3.71661e-05, No Iterations 5
ExecutionTime = 0.661905 s  ClockTime = 1 s

Time = 284s

smoothSolver:  Solving for Ux, Initial residual = 1.40968e-05, Final residual = 9.1421e-06, No Iterations 1
smoothSolver:  Solving for Uy, Initial residual = 0.0113075, Final residual = 0.00104971, No Iterations 2
Pressure gradient source: uncorrected Ubar = 1, pressure gradient = 0.0064412
GAMG:  Solving for p, Initial residual = 0.00585094, Final residual = 0.000341928, No Iterations 4
time step continuity errors : sum local = 4.30929e-09, global = 1.0003e-17, cumulative = 2.28064e-16
Pressure gradient source: uncorrected Ubar = 1, pressure gradient = 0.00643888
smoothSolver:  Solving for omega, Initial residual = 6.95928e-06, Final residual = 6.95928e-06, No Iterations 0
smoothSolver:  Solving for k, Initial residual = 0.000618205, Final residual = 5.9348e-05, No Iterations 4
ExecutionTime = 0.66395 s  ClockTime = 1 s

Time = 285s

smoothSolver:  Solving for Ux, Initial residual = 1.40228e-05, Final residual = 9.09593e-06, No Iterations 1
smoothSolver:  Solving for Uy, Initial residual = 0.011939, Final residual = 0.00100393, No Iterations 2
Pressure gradient source: uncorrected Ubar = 1, pressure gradient = 0.00644108
GAMG:  Solving for p, Initial residual = 0.00452507, Final residual = 0.000323456, No Iterations 4
time step continuity errors : sum local = 4.06379e-09, global = -2.9043e-18, cumulative = 2.2516e-16
Pressure gradient source: uncorrected Ubar = 1, pressure gradient = 0.00643876
smoothSolver:  Solving for omega, Initial residual = 6.95933e-06, Final residual = 6.95933e-06, No Iterations 0
smoothSolver:  Solving for k, Initial residual = 0.000616606, Final residual = 3.62309e-05, No Iterations 5
ExecutionTime = 0.665905 s  ClockTime = 1 s

Time = 286s

smoothSolver:  Solving for Ux, Initial residual = 1.39511e-05, Final residual = 9.05344e-06, No Iterations 1
smoothSolver:  Solving for Uy, Initial residual = 0.0114905, Final residual = 0.00107501, No Iterations 2
Pressure gradient source: uncorrected Ubar = 1, pressure gradient = 0.00644094
GAMG:  Solving for p, Initial residual = 0.00473306, Final residual = 0.000323613, No Iterations 4
time step continuity errors : sum local = 3.97059e-09, global = -1.8382e-18, cumulative = 2.23322e-16
Pressure gradient source: uncorrected Ubar = 1, pressure gradient = 0.00643864
smoothSolver:  Solving for omega, Initial residual = 6.9594e-06, Final residual = 6.9594e-06, No Iterations 0
smoothSolver:  Solving for k, Initial residual = 0.000614461, Final residual = 6.11154e-05, No Iterations 4
ExecutionTime = 0.667781 s  ClockTime = 1 s

Time = 287s

smoothSolver:  Solving for Ux, Initial residual = 1.38872e-05, Final residual = 9.01163e-06, No Iterations 1
smoothSolver:  Solving for Uy, Initial residual = 0.0127191, Final residual = 0.000521228, No Iterations 3
Pressure gradient source: uncorrected Ubar = 1, pressure gradient = 0.00644082
GAMG:  Solving for p, Initial residual = 0.00554748, Final residual = 0.00030551, No Iterations 4
time step continuity errors : sum local = 3.80144e-09, global = 2.73504e-18, cumulative = 2.26057e-16
Pressure gradient source: uncorrected Ubar = 1, pressure gradient = 0.00643852
smoothSolver:  Solving for omega, Initial residual = 6.95946e-06, Final residual = 6.95946e-06, No Iterations 0
smoothSolver:  Solving for k, Initial residual = 0.000614042, Final residual = 3.64084e-05, No Iterations 5
ExecutionTime = 0.669839 s  ClockTime = 1 s

Time = 288s

smoothSolver:  Solving for Ux, Initial residual = 1.38385e-05, Final residual = 8.97816e-06, No Iterations 1
smoothSolver:  Solving for Uy, Initial residual = 0.0100992, Final residual = 0.000411814, No Iterations 3
Pressure gradient source: uncorrected Ubar = 1, pressure gradient = 0.00644068
GAMG:  Solving for p, Initial residual = 0.0056188, Final residual = 0.000354877, No Iterations 4
time step continuity errors : sum local = 4.44225e-09, global = 5.95649e-18, cumulative = 2.32013e-16
Pressure gradient source: uncorrected Ubar = 1, pressure gradient = 0.0064384
smoothSolver:  Solving for omega, Initial residual = 6.95937e-06, Final residual = 6.95937e-06, No Iterations 0
smoothSolver:  Solving for k, Initial residual = 0.000612144, Final residual = 5.81825e-05, No Iterations 4
ExecutionTime = 0.671908 s  ClockTime = 1 s

Time = 289s

smoothSolver:  Solving for Ux, Initial residual = 1.3759e-05, Final residual = 8.92823e-06, No Iterations 1
smoothSolver:  Solving for Uy, Initial residual = 0.0098999, Final residual = 0.000952384, No Iterations 2
Pressure gradient source: uncorrected Ubar = 1, pressure gradient = 0.00644057
GAMG:  Solving for p, Initial residual = 0.00461012, Final residual = 0.000321226, No Iterations 4
time step continuity errors : sum local = 3.96326e-09, global = 5.95344e-19, cumulative = 2.32608e-16
Pressure gradient source: uncorrected Ubar = 1, pressure gradient = 0.00643828
smoothSolver:  Solving for omega, Initial residual = 6.95943e-06, Final residual = 6.95943e-06, No Iterations 0
smoothSolver:  Solving for k, Initial residual = 0.000611043, Final residual = 5.9998e-05, No Iterations 4
ExecutionTime = 0.674042 s  ClockTime = 1 s


SIMPLE solution converged in 289 iterations

End

