/*---------------------------------------------------------------------------*\
  =========                 |
  \\      /  F ield         | OpenFOAM: The Open Source CFD Toolbox
   \\    /   O peration     | Website:  https://openfoam.org
    \\  /    A nd           | Version:  10
     \\/     M anipulation  |
\*---------------------------------------------------------------------------*/
Build  : 10-e450dce21ea5
Exec   : blockMesh
Date   : Jan 16 2023
Time   : 11:42:06
Host   : "w530-R9YK46P"
PID    : 13717
I/O    : uncollated
Case   : /home/jdmezazeron/gitDanielMezaZ/turbulenceVisualized/Data/SimulationFiles/E2_Re150
nProcs : 1
sigFpe : Enabling floating point exception trapping (FOAM_SIGFPE).
fileModificationChecking : Monitoring run-time modified files using timeStampMaster (fileModificationSkew 10)
allowSystemOperations : Allowing user-supplied system call operations

// * * * * * * * * * * * * * * * * * * * * * * * * * * * * * * * * * * * * * //
Create time

Reading "blockMeshDict"

Creating block mesh from
    "system/blockMeshDict"
Creating block edges
No non-planar block faces defined
Creating topology blocks
Creating topology patches

Creating block mesh topology

Check topology

	Basic statistics
		Number of internal faces : 0
		Number of boundary faces : 6
		Number of defined boundary faces : 6
		Number of undefined boundary faces : 0
	Checking patch -> block consistency

Creating block offsets
Creating merge list .

Creating polyMesh from blockMesh
Creating patches
Creating cells
Creating points with scale 1
    Block 0 cell size :
        i : 0.5
        j : 0.00921276 .. 0.036851
        k : 2

Detected cyclic patches; ordering boundary faces

Writing polyMesh
----------------
Mesh Information
----------------
  boundingBox: (-1 0 -1) (1 1 1)
  nPoints: 510
  nCells: 200
  nFaces: 854
  nInternalFaces: 346
----------------
Patches
----------------
  patch 0 (start: 346 size: 50) name: inlet
  patch 1 (start: 396 size: 50) name: outlet
  patch 2 (start: 446 size: 4) name: fixedWalls-bottom
  patch 3 (start: 450 size: 4) name: fixedWalls-top
  patch 4 (start: 454 size: 400) name: frontAndBack

End

/*---------------------------------------------------------------------------*\
  =========                 |
  \\      /  F ield         | OpenFOAM: The Open Source CFD Toolbox
   \\    /   O peration     | Website:  https://openfoam.org
    \\  /    A nd           | Version:  10
     \\/     M anipulation  |
\*---------------------------------------------------------------------------*/
Build  : 10-e450dce21ea5
Exec   : simpleFoam
Date   : Jan 16 2023
Time   : 11:42:06
Host   : "w530-R9YK46P"
PID    : 13718
I/O    : uncollated
Case   : /home/jdmezazeron/gitDanielMezaZ/turbulenceVisualized/Data/SimulationFiles/E2_Re150
nProcs : 1
sigFpe : Enabling floating point exception trapping (FOAM_SIGFPE).
fileModificationChecking : Monitoring run-time modified files using timeStampMaster (fileModificationSkew 10)
allowSystemOperations : Allowing user-supplied system call operations

// * * * * * * * * * * * * * * * * * * * * * * * * * * * * * * * * * * * * * //
Create time

Create mesh for time = 0


SIMPLE: Convergence criteria found
        U: tolerance 0.01
        p: tolerance 0.01
        omega: tolerance 0.0001

Reading field p

Reading field U

Reading/calculating face flux field phi

Selecting viscosity model Newtonian
Selecting turbulence model type RAS
Selecting RAS turbulence model kOmegaSST
Selecting patchDistMethod meshWave
RAS
{
    RASModel        kOmegaSST;
    turbulence      on;
    printCoeffs     on;
    alphaK1         0.85;
    alphaK2         1;
    alphaOmega1     0.5;
    alphaOmega2     0.856;
    gamma1          0.555556;
    gamma2          0.44;
    beta1           0.075;
    beta2           0.0828;
    betaStar        0.09;
    a1              0.31;
    b1              1;
    c1              10;
    F3              false;
}

No MRF models present

--> FOAM Warning : Creating fvModels from "system/fvOptions" rather than constant/fvModels
No fvModels present
--> FOAM Warning : Creating fvConstraints from "system/fvOptions"

Selecting finite volume constraint type meanVelocityForce
    Name: momentumSource
    - selecting all cells
    - selected 200 cell(s) with volume 4
    Initial pressure gradient = 0


Starting time loop

turbulenceFields stressComponents: storing fields:
    R

Time = 1s

smoothSolver:  Solving for Ux, Initial residual = 0, Final residual = 0, No Iterations 0
smoothSolver:  Solving for Uy, Initial residual = 0, Final residual = 0, No Iterations 0
Pressure gradient source: uncorrected Ubar = 0, pressure gradient = 51.6033
GAMG:  Solving for p, Initial residual = 0.99999, Final residual = 0.0615303, No Iterations 3
time step continuity errors : sum local = 3.58992e-17, global = -2.69939e-18, cumulative = -2.69939e-18
Pressure gradient source: uncorrected Ubar = 0.869361, pressure gradient = 6.74142
smoothSolver:  Solving for omega, Initial residual = 0.0177588, Final residual = 0.00158077, No Iterations 2
smoothSolver:  Solving for k, Initial residual = 1, Final residual = 0.0294469, No Iterations 1
ExecutionTime = 0.0129 s  ClockTime = 0 s

Time = 2s

smoothSolver:  Solving for Ux, Initial residual = 0.389625, Final residual = 0.0316829, No Iterations 6
smoothSolver:  Solving for Uy, Initial residual = 1, Final residual = 0.0749698, No Iterations 2
Pressure gradient source: uncorrected Ubar = 1.93064, pressure gradient = -45.4049
GAMG:  Solving for p, Initial residual = 1, Final residual = 0.0808905, No Iterations 6
time step continuity errors : sum local = 0.000563188, global = -1.06938e-18, cumulative = -3.76876e-18
Pressure gradient source: uncorrected Ubar = 1.12789, pressure gradient = -0.424471
smoothSolver:  Solving for omega, Initial residual = 0.176498, Final residual = 0.000633216, No Iterations 1
smoothSolver:  Solving for k, Initial residual = 0.10931, Final residual = 0.0059756, No Iterations 3
ExecutionTime = 0.015125 s  ClockTime = 0 s

Time = 3s

smoothSolver:  Solving for Ux, Initial residual = 0.0528306, Final residual = 0.0051126, No Iterations 5
smoothSolver:  Solving for Uy, Initial residual = 0.299203, Final residual = 0.0184168, No Iterations 5
Pressure gradient source: uncorrected Ubar = 0.918487, pressure gradient = 4.19414
GAMG:  Solving for p, Initial residual = 0.209772, Final residual = 0.0095378, No Iterations 7
time step continuity errors : sum local = 0.000127771, global = -6.00853e-18, cumulative = -9.7773e-18
Pressure gradient source: uncorrected Ubar = 0.988203, pressure gradient = 0.243938
smoothSolver:  Solving for omega, Initial residual = 0.00893974, Final residual = 0.000167085, No Iterations 1
smoothSolver:  Solving for k, Initial residual = 0.0417377, Final residual = 0.00261412, No Iterations 4
ExecutionTime = 0.017461 s  ClockTime = 0 s

Time = 4s

smoothSolver:  Solving for Ux, Initial residual = 0.0235694, Final residual = 0.00159998, No Iterations 5
smoothSolver:  Solving for Uy, Initial residual = 0.158464, Final residual = 0.0114133, No Iterations 4
Pressure gradient source: uncorrected Ubar = 1.01249, pressure gradient = -0.453801
GAMG:  Solving for p, Initial residual = 0.190502, Final residual = 0.0182623, No Iterations 6
time step continuity errors : sum local = 0.000216554, global = -2.74989e-18, cumulative = -1.25272e-17
Pressure gradient source: uncorrected Ubar = 1.00175, pressure gradient = 0.146097
smoothSolver:  Solving for omega, Initial residual = 0.00844139, Final residual = 0.000131939, No Iterations 1
smoothSolver:  Solving for k, Initial residual = 0.0297724, Final residual = 0.00267489, No Iterations 4
ExecutionTime = 0.019603 s  ClockTime = 0 s

Time = 5s

smoothSolver:  Solving for Ux, Initial residual = 0.0162873, Final residual = 0.00107631, No Iterations 5
smoothSolver:  Solving for Uy, Initial residual = 0.383484, Final residual = 0.0266252, No Iterations 5
Pressure gradient source: uncorrected Ubar = 1.00268, pressure gradient = -0.00340097
GAMG:  Solving for p, Initial residual = 0.248203, Final residual = 0.0151512, No Iterations 8
time step continuity errors : sum local = 0.000118581, global = -1.60089e-18, cumulative = -1.41281e-17
Pressure gradient source: uncorrected Ubar = 1.00035, pressure gradient = 0.126846
smoothSolver:  Solving for omega, Initial residual = 0.00340438, Final residual = 8.29736e-05, No Iterations 1
smoothSolver:  Solving for k, Initial residual = 0.0246969, Final residual = 0.0024666, No Iterations 4
ExecutionTime = 0.022034 s  ClockTime = 0 s

Time = 6s

smoothSolver:  Solving for Ux, Initial residual = 0.012805, Final residual = 0.000858712, No Iterations 5
smoothSolver:  Solving for Uy, Initial residual = 0.247392, Final residual = 0.0163508, No Iterations 4
Pressure gradient source: uncorrected Ubar = 1.00251, pressure gradient = -0.0130521
GAMG:  Solving for p, Initial residual = 0.329191, Final residual = 0.0223604, No Iterations 8
time step continuity errors : sum local = 8.27013e-05, global = -1.02343e-17, cumulative = -2.43624e-17
Pressure gradient source: uncorrected Ubar = 1.00033, pressure gradient = 0.108736
smoothSolver:  Solving for omega, Initial residual = 0.00228614, Final residual = 5.32915e-05, No Iterations 1
smoothSolver:  Solving for k, Initial residual = 0.0224362, Final residual = 0.00142027, No Iterations 5
ExecutionTime = 0.024514 s  ClockTime = 0 s

Time = 7s

smoothSolver:  Solving for Ux, Initial residual = 0.0103431, Final residual = 0.000700538, No Iterations 5
smoothSolver:  Solving for Uy, Initial residual = 0.145908, Final residual = 0.00789185, No Iterations 4
Pressure gradient source: uncorrected Ubar = 1.00183, pressure gradient = 0.00731078
GAMG:  Solving for p, Initial residual = 0.251491, Final residual = 0.0220229, No Iterations 7
time step continuity errors : sum local = 5.60587e-05, global = 1.01337e-17, cumulative = -1.42287e-17
Pressure gradient source: uncorrected Ubar = 1.00023, pressure gradient = 0.0959281
smoothSolver:  Solving for omega, Initial residual = 0.00115419, Final residual = 3.09615e-05, No Iterations 1
smoothSolver:  Solving for k, Initial residual = 0.0203207, Final residual = 0.00134407, No Iterations 5
ExecutionTime = 0.026699 s  ClockTime = 0 s

Time = 8s

smoothSolver:  Solving for Ux, Initial residual = 0.00858213, Final residual = 0.00058586, No Iterations 5
smoothSolver:  Solving for Uy, Initial residual = 0.126288, Final residual = 0.00850287, No Iterations 4
Pressure gradient source: uncorrected Ubar = 1.00141, pressure gradient = 0.0176372
GAMG:  Solving for p, Initial residual = 0.138347, Final residual = 0.010365, No Iterations 6
time step continuity errors : sum local = 3.04926e-05, global = 9.22512e-18, cumulative = -5.00355e-18
Pressure gradient source: uncorrected Ubar = 1.00017, pressure gradient = 0.0862428
smoothSolver:  Solving for omega, Initial residual = 0.000682705, Final residual = 2.00087e-05, No Iterations 1
smoothSolver:  Solving for k, Initial residual = 0.0188237, Final residual = 0.00126823, No Iterations 5
ExecutionTime = 0.028753 s  ClockTime = 0 s

Time = 9s

smoothSolver:  Solving for Ux, Initial residual = 0.00723155, Final residual = 0.000496805, No Iterations 5
smoothSolver:  Solving for Uy, Initial residual = 0.153103, Final residual = 0.0130614, No Iterations 4
Pressure gradient source: uncorrected Ubar = 1.00111, pressure gradient = 0.0246155
GAMG:  Solving for p, Initial residual = 0.116798, Final residual = 0.00628976, No Iterations 4
time step continuity errors : sum local = 1.63926e-05, global = 9.69747e-18, cumulative = 4.69391e-18
Pressure gradient source: uncorrected Ubar = 1.00013, pressure gradient = 0.0787744
smoothSolver:  Solving for omega, Initial residual = 0.000371191, Final residual = 1.22288e-05, No Iterations 1
smoothSolver:  Solving for k, Initial residual = 0.0174037, Final residual = 0.00119266, No Iterations 5
ExecutionTime = 0.030853 s  ClockTime = 0 s

Time = 10s

smoothSolver:  Solving for Ux, Initial residual = 0.00616004, Final residual = 0.00042739, No Iterations 5
smoothSolver:  Solving for Uy, Initial residual = 0.203868, Final residual = 0.0121414, No Iterations 5
Pressure gradient source: uncorrected Ubar = 1.0009, pressure gradient = 0.0292829
GAMG:  Solving for p, Initial residual = 0.114643, Final residual = 0.00679721, No Iterations 4
time step continuity errors : sum local = 1.58651e-05, global = 4.09038e-18, cumulative = 8.78429e-18
Pressure gradient source: uncorrected Ubar = 1.00011, pressure gradient = 0.0728946
smoothSolver:  Solving for omega, Initial residual = 0.000211896, Final residual = 8.3781e-06, No Iterations 1
smoothSolver:  Solving for k, Initial residual = 0.0162373, Final residual = 0.00119083, No Iterations 5
ExecutionTime = 0.033062 s  ClockTime = 0 s

Time = 11s

smoothSolver:  Solving for Ux, Initial residual = 0.00530173, Final residual = 0.00037043, No Iterations 5
smoothSolver:  Solving for Uy, Initial residual = 0.229778, Final residual = 0.0137259, No Iterations 5
Pressure gradient source: uncorrected Ubar = 1.00074, pressure gradient = 0.0322125
GAMG:  Solving for p, Initial residual = 0.116614, Final residual = 0.00861147, No Iterations 5
time step continuity errors : sum local = 1.79478e-05, global = -1.32946e-17, cumulative = -4.51032e-18
Pressure gradient source: uncorrected Ubar = 1.00009, pressure gradient = 0.0681458
smoothSolver:  Solving for omega, Initial residual = 0.00011882, Final residual = 5.64294e-06, No Iterations 1
smoothSolver:  Solving for k, Initial residual = 0.0151863, Final residual = 0.00112818, No Iterations 5
ExecutionTime = 0.035312 s  ClockTime = 0 s

Time = 12s

smoothSolver:  Solving for Ux, Initial residual = 0.00460834, Final residual = 0.000322221, No Iterations 5
smoothSolver:  Solving for Uy, Initial residual = 0.242699, Final residual = 0.0152901, No Iterations 5
Pressure gradient source: uncorrected Ubar = 1.00061, pressure gradient = 0.0343731
GAMG:  Solving for p, Initial residual = 0.123105, Final residual = 0.00890471, No Iterations 6
time step continuity errors : sum local = 1.4043e-05, global = -2.87356e-19, cumulative = -4.79767e-18
Pressure gradient source: uncorrected Ubar = 1.00007, pressure gradient = 0.0642728
smoothSolver:  Solving for omega, Initial residual = 6.78829e-05, Final residual = 4.19697e-06, No Iterations 1
smoothSolver:  Solving for k, Initial residual = 0.0142772, Final residual = 0.00114409, No Iterations 5
ExecutionTime = 0.037472 s  ClockTime = 0 s

Time = 13s

smoothSolver:  Solving for Ux, Initial residual = 0.00402527, Final residual = 0.000282496, No Iterations 5
smoothSolver:  Solving for Uy, Initial residual = 0.269999, Final residual = 0.0174728, No Iterations 5
Pressure gradient source: uncorrected Ubar = 1.00051, pressure gradient = 0.0358964
GAMG:  Solving for p, Initial residual = 0.135582, Final residual = 0.0111533, No Iterations 7
time step continuity errors : sum local = 1.29572e-05, global = 6.25068e-18, cumulative = 1.45301e-18
Pressure gradient source: uncorrected Ubar = 1.00006, pressure gradient = 0.0610738
smoothSolver:  Solving for omega, Initial residual = 3.91169e-05, Final residual = 3.12942e-06, No Iterations 1
smoothSolver:  Solving for k, Initial residual = 0.0134486, Final residual = 0.00103221, No Iterations 5
ExecutionTime = 0.039663 s  ClockTime = 0 s

Time = 14s

smoothSolver:  Solving for Ux, Initial residual = 0.0035367, Final residual = 0.000248463, No Iterations 5
smoothSolver:  Solving for Uy, Initial residual = 0.264112, Final residual = 0.0167884, No Iterations 5
Pressure gradient source: uncorrected Ubar = 1.00044, pressure gradient = 0.0369711
GAMG:  Solving for p, Initial residual = 0.164705, Final residual = 0.0142182, No Iterations 7
time step continuity errors : sum local = 1.19215e-05, global = -3.03931e-18, cumulative = -1.58631e-18
Pressure gradient source: uncorrected Ubar = 1.00005, pressure gradient = 0.0584007
smoothSolver:  Solving for omega, Initial residual = 2.29558e-05, Final residual = 2.51883e-06, No Iterations 1
smoothSolver:  Solving for k, Initial residual = 0.0127008, Final residual = 0.00101264, No Iterations 5
ExecutionTime = 0.041762 s  ClockTime = 0 s

Time = 15s

smoothSolver:  Solving for Ux, Initial residual = 0.0031145, Final residual = 0.00022001, No Iterations 5
smoothSolver:  Solving for Uy, Initial residual = 0.22313, Final residual = 0.0222818, No Iterations 4
Pressure gradient source: uncorrected Ubar = 1.00038, pressure gradient = 0.0377132
GAMG:  Solving for p, Initial residual = 0.196812, Final residual = 0.0176459, No Iterations 7
time step continuity errors : sum local = 9.83345e-06, global = 3.95681e-18, cumulative = 2.3705e-18
Pressure gradient source: uncorrected Ubar = 1.00004, pressure gradient = 0.0561412
smoothSolver:  Solving for omega, Initial residual = 1.38546e-05, Final residual = 2.04158e-06, No Iterations 1
smoothSolver:  Solving for k, Initial residual = 0.012036, Final residual = 0.00102009, No Iterations 5
ExecutionTime = 0.043881 s  ClockTime = 0 s

Time = 16s

smoothSolver:  Solving for Ux, Initial residual = 0.002757, Final residual = 0.000194695, No Iterations 5
smoothSolver:  Solving for Uy, Initial residual = 0.181333, Final residual = 0.0180029, No Iterations 4
Pressure gradient source: uncorrected Ubar = 1.00032, pressure gradient = 0.0383031
GAMG:  Solving for p, Initial residual = 0.219863, Final residual = 0.0196211, No Iterations 6
time step continuity errors : sum local = 7.83209e-06, global = 1.59202e-19, cumulative = 2.52971e-18
Pressure gradient source: uncorrected Ubar = 1.00003, pressure gradient = 0.0542233
smoothSolver:  Solving for omega, Initial residual = 8.6343e-06, Final residual = 8.6343e-06, No Iterations 0
smoothSolver:  Solving for k, Initial residual = 0.0118276, Final residual = 0.000937078, No Iterations 5
ExecutionTime = 0.046068 s  ClockTime = 0 s

Time = 17s

smoothSolver:  Solving for Ux, Initial residual = 0.00244836, Final residual = 0.000173324, No Iterations 5
smoothSolver:  Solving for Uy, Initial residual = 0.136708, Final residual = 0.00835459, No Iterations 5
Pressure gradient source: uncorrected Ubar = 1.00028, pressure gradient = 0.0387029
GAMG:  Solving for p, Initial residual = 0.204727, Final residual = 0.0178328, No Iterations 6
time step continuity errors : sum local = 5.55084e-06, global = -2.08058e-18, cumulative = 4.49128e-19
Pressure gradient source: uncorrected Ubar = 1.00003, pressure gradient = 0.0525785
smoothSolver:  Solving for omega, Initial residual = 8.63809e-06, Final residual = 8.63809e-06, No Iterations 0
smoothSolver:  Solving for k, Initial residual = 0.0116838, Final residual = 0.000911954, No Iterations 5
ExecutionTime = 0.048212 s  ClockTime = 0 s

Time = 18s

smoothSolver:  Solving for Ux, Initial residual = 0.00218615, Final residual = 0.000154613, No Iterations 5
smoothSolver:  Solving for Uy, Initial residual = 0.11571, Final residual = 0.0115171, No Iterations 4
Pressure gradient source: uncorrected Ubar = 1.00025, pressure gradient = 0.0390346
GAMG:  Solving for p, Initial residual = 0.164117, Final residual = 0.0127273, No Iterations 6
time step continuity errors : sum local = 3.38884e-06, global = -6.84332e-18, cumulative = -6.3942e-18
Pressure gradient source: uncorrected Ubar = 1.00003, pressure gradient = 0.0511646
smoothSolver:  Solving for omega, Initial residual = 8.6415e-06, Final residual = 8.6415e-06, No Iterations 0
smoothSolver:  Solving for k, Initial residual = 0.0115636, Final residual = 0.000945304, No Iterations 5
ExecutionTime = 0.050331 s  ClockTime = 0 s

Time = 19s

smoothSolver:  Solving for Ux, Initial residual = 0.00195525, Final residual = 0.000138833, No Iterations 5
smoothSolver:  Solving for Uy, Initial residual = 0.106991, Final residual = 0.00673607, No Iterations 5
Pressure gradient source: uncorrected Ubar = 1.00022, pressure gradient = 0.0392746
GAMG:  Solving for p, Initial residual = 0.132654, Final residual = 0.0110256, No Iterations 5
time step continuity errors : sum local = 2.6066e-06, global = 6.3029e-18, cumulative = -9.12919e-20
Pressure gradient source: uncorrected Ubar = 1.00002, pressure gradient = 0.0499414
smoothSolver:  Solving for omega, Initial residual = 8.64413e-06, Final residual = 8.64413e-06, No Iterations 0
smoothSolver:  Solving for k, Initial residual = 0.0114583, Final residual = 0.00090495, No Iterations 5
ExecutionTime = 0.052461 s  ClockTime = 0 s

Time = 20s

smoothSolver:  Solving for Ux, Initial residual = 0.00175542, Final residual = 0.000125134, No Iterations 5
smoothSolver:  Solving for Uy, Initial residual = 0.103261, Final residual = 0.00672821, No Iterations 5
Pressure gradient source: uncorrected Ubar = 1.00019, pressure gradient = 0.0394667
GAMG:  Solving for p, Initial residual = 0.11091, Final residual = 0.00741933, No Iterations 4
time step continuity errors : sum local = 1.56428e-06, global = -1.6754e-19, cumulative = -2.58832e-19
Pressure gradient source: uncorrected Ubar = 1.00002, pressure gradient = 0.0488796
smoothSolver:  Solving for omega, Initial residual = 8.64606e-06, Final residual = 8.64606e-06, No Iterations 0
smoothSolver:  Solving for k, Initial residual = 0.0113656, Final residual = 0.000960517, No Iterations 5
ExecutionTime = 0.054526 s  ClockTime = 0 s

Time = 21s

smoothSolver:  Solving for Ux, Initial residual = 0.00158053, Final residual = 0.000113292, No Iterations 5
smoothSolver:  Solving for Uy, Initial residual = 0.105873, Final residual = 0.00714734, No Iterations 5
Pressure gradient source: uncorrected Ubar = 1.00017, pressure gradient = 0.0396038
GAMG:  Solving for p, Initial residual = 0.0890484, Final residual = 0.00466093, No Iterations 4
time step continuity errors : sum local = 9.50907e-07, global = 8.62883e-19, cumulative = 6.0405e-19
Pressure gradient source: uncorrected Ubar = 1.00002, pressure gradient = 0.0479527
smoothSolver:  Solving for omega, Initial residual = 8.64776e-06, Final residual = 8.64776e-06, No Iterations 0
smoothSolver:  Solving for k, Initial residual = 0.0112928, Final residual = 0.000928454, No Iterations 5
ExecutionTime = 0.056638 s  ClockTime = 0 s

Time = 22s

smoothSolver:  Solving for Ux, Initial residual = 0.00142782, Final residual = 0.000103059, No Iterations 5
smoothSolver:  Solving for Uy, Initial residual = 0.112887, Final residual = 0.00764052, No Iterations 5
Pressure gradient source: uncorrected Ubar = 1.00015, pressure gradient = 0.039718
GAMG:  Solving for p, Initial residual = 0.0709644, Final residual = 0.00321989, No Iterations 4
time step continuity errors : sum local = 6.3649e-07, global = 5.81263e-19, cumulative = 1.18531e-18
Pressure gradient source: uncorrected Ubar = 1.00001, pressure gradient = 0.0471419
smoothSolver:  Solving for omega, Initial residual = 8.64925e-06, Final residual = 8.64925e-06, No Iterations 0
smoothSolver:  Solving for k, Initial residual = 0.0112256, Final residual = 0.000940011, No Iterations 5
ExecutionTime = 0.058647 s  ClockTime = 0 s

Time = 23s

smoothSolver:  Solving for Ux, Initial residual = 0.00129704, Final residual = 9.41229e-05, No Iterations 5
smoothSolver:  Solving for Uy, Initial residual = 0.11991, Final residual = 0.00789274, No Iterations 5
Pressure gradient source: uncorrected Ubar = 1.00013, pressure gradient = 0.0398038
GAMG:  Solving for p, Initial residual = 0.0602584, Final residual = 0.00403629, No Iterations 4
time step continuity errors : sum local = 7.25214e-07, global = -1.2565e-18, cumulative = -7.11914e-20
Pressure gradient source: uncorrected Ubar = 1.00001, pressure gradient = 0.0464299
smoothSolver:  Solving for omega, Initial residual = 8.65079e-06, Final residual = 8.65079e-06, No Iterations 0
smoothSolver:  Solving for k, Initial residual = 0.0111621, Final residual = 0.000904682, No Iterations 5
ExecutionTime = 0.060611 s  ClockTime = 0 s

Time = 24s

smoothSolver:  Solving for Ux, Initial residual = 0.00118214, Final residual = 8.62623e-05, No Iterations 5
smoothSolver:  Solving for Uy, Initial residual = 0.120936, Final residual = 0.00795386, No Iterations 5
Pressure gradient source: uncorrected Ubar = 1.00012, pressure gradient = 0.0398683
GAMG:  Solving for p, Initial residual = 0.0549226, Final residual = 0.00363864, No Iterations 4
time step continuity errors : sum local = 5.9942e-07, global = -1.46619e-17, cumulative = -1.47331e-17
Pressure gradient source: uncorrected Ubar = 1.00001, pressure gradient = 0.0458026
smoothSolver:  Solving for omega, Initial residual = 8.65209e-06, Final residual = 8.65209e-06, No Iterations 0
smoothSolver:  Solving for k, Initial residual = 0.0111049, Final residual = 0.000895148, No Iterations 5
ExecutionTime = 0.062578 s  ClockTime = 0 s

Time = 25s

smoothSolver:  Solving for Ux, Initial residual = 0.00108333, Final residual = 7.92358e-05, No Iterations 5
smoothSolver:  Solving for Uy, Initial residual = 0.11785, Final residual = 0.00775863, No Iterations 5
Pressure gradient source: uncorrected Ubar = 1.00011, pressure gradient = 0.039919
GAMG:  Solving for p, Initial residual = 0.0512948, Final residual = 0.00205876, No Iterations 4
time step continuity errors : sum local = 3.16727e-07, global = -1.35196e-18, cumulative = -1.60851e-17
Pressure gradient source: uncorrected Ubar = 1.00001, pressure gradient = 0.0452484
smoothSolver:  Solving for omega, Initial residual = 8.65321e-06, Final residual = 8.65321e-06, No Iterations 0
smoothSolver:  Solving for k, Initial residual = 0.0110493, Final residual = 0.00090175, No Iterations 5
ExecutionTime = 0.064597 s  ClockTime = 0 s

Time = 26s

smoothSolver:  Solving for Ux, Initial residual = 0.00099545, Final residual = 7.30043e-05, No Iterations 5
smoothSolver:  Solving for Uy, Initial residual = 0.113807, Final residual = 0.00753158, No Iterations 5
Pressure gradient source: uncorrected Ubar = 1.0001, pressure gradient = 0.0399556
GAMG:  Solving for p, Initial residual = 0.0509522, Final residual = 0.00436387, No Iterations 4
time step continuity errors : sum local = 5.94324e-07, global = -7.50448e-18, cumulative = -2.35896e-17
Pressure gradient source: uncorrected Ubar = 1.00001, pressure gradient = 0.0447572
smoothSolver:  Solving for omega, Initial residual = 8.6541e-06, Final residual = 8.6541e-06, No Iterations 0
smoothSolver:  Solving for k, Initial residual = 0.0110014, Final residual = 0.000870386, No Iterations 5
ExecutionTime = 0.066773 s  ClockTime = 0 s

Time = 27s

smoothSolver:  Solving for Ux, Initial residual = 0.000917641, Final residual = 6.7357e-05, No Iterations 5
smoothSolver:  Solving for Uy, Initial residual = 0.109146, Final residual = 0.00735898, No Iterations 5
Pressure gradient source: uncorrected Ubar = 1.00009, pressure gradient = 0.0399856
GAMG:  Solving for p, Initial residual = 0.0544183, Final residual = 0.00469266, No Iterations 5
time step continuity errors : sum local = 5.92034e-07, global = -1.63178e-17, cumulative = -3.99073e-17
Pressure gradient source: uncorrected Ubar = 1.00001, pressure gradient = 0.044321
smoothSolver:  Solving for omega, Initial residual = 8.65495e-06, Final residual = 8.65495e-06, No Iterations 0
smoothSolver:  Solving for k, Initial residual = 0.0109593, Final residual = 0.000923462, No Iterations 5
ExecutionTime = 0.068873 s  ClockTime = 0 s

Time = 28s

smoothSolver:  Solving for Ux, Initial residual = 0.000846278, Final residual = 6.22437e-05, No Iterations 5
smoothSolver:  Solving for Uy, Initial residual = 0.0985994, Final residual = 0.0066653, No Iterations 5
Pressure gradient source: uncorrected Ubar = 1.00008, pressure gradient = 0.0400067
GAMG:  Solving for p, Initial residual = 0.0559796, Final residual = 0.00494142, No Iterations 6
time step continuity errors : sum local = 5.09826e-07, global = -4.21717e-19, cumulative = -4.03291e-17
Pressure gradient source: uncorrected Ubar = 1.00001, pressure gradient = 0.0439326
smoothSolver:  Solving for omega, Initial residual = 8.65554e-06, Final residual = 8.65554e-06, No Iterations 0
smoothSolver:  Solving for k, Initial residual = 0.010925, Final residual = 0.000885425, No Iterations 5
ExecutionTime = 0.070987 s  ClockTime = 0 s

Time = 29s

smoothSolver:  Solving for Ux, Initial residual = 0.000782621, Final residual = 5.76423e-05, No Iterations 5
smoothSolver:  Solving for Uy, Initial residual = 0.0893468, Final residual = 0.00596992, No Iterations 5
Pressure gradient source: uncorrected Ubar = 1.00007, pressure gradient = 0.0400239
GAMG:  Solving for p, Initial residual = 0.0580978, Final residual = 0.00517194, No Iterations 5
time step continuity errors : sum local = 4.86237e-07, global = -9.85171e-18, cumulative = -5.01808e-17
Pressure gradient source: uncorrected Ubar = 1.00001, pressure gradient = 0.0435862
smoothSolver:  Solving for omega, Initial residual = 8.65623e-06, Final residual = 8.65623e-06, No Iterations 0
smoothSolver:  Solving for k, Initial residual = 0.010894, Final residual = 0.000929915, No Iterations 5
ExecutionTime = 0.073018 s  ClockTime = 0 s

Time = 30s

smoothSolver:  Solving for Ux, Initial residual = 0.000725566, Final residual = 5.34033e-05, No Iterations 5
smoothSolver:  Solving for Uy, Initial residual = 0.0789572, Final residual = 0.00537231, No Iterations 5
Pressure gradient source: uncorrected Ubar = 1.00006, pressure gradient = 0.0400354
GAMG:  Solving for p, Initial residual = 0.0581787, Final residual = 0.00542848, No Iterations 5
time step continuity errors : sum local = 4.51631e-07, global = 2.25542e-19, cumulative = -4.99552e-17
Pressure gradient source: uncorrected Ubar = 1.00001, pressure gradient = 0.0432763
smoothSolver:  Solving for omega, Initial residual = 8.65679e-06, Final residual = 8.65679e-06, No Iterations 0
smoothSolver:  Solving for k, Initial residual = 0.0108599, Final residual = 0.000902072, No Iterations 5
ExecutionTime = 0.07503 s  ClockTime = 0 s

Time = 31s

smoothSolver:  Solving for Ux, Initial residual = 0.000674201, Final residual = 4.97007e-05, No Iterations 5
smoothSolver:  Solving for Uy, Initial residual = 0.0713011, Final residual = 0.00496094, No Iterations 5
Pressure gradient source: uncorrected Ubar = 1.00006, pressure gradient = 0.0400444
GAMG:  Solving for p, Initial residual = 0.0575635, Final residual = 0.00288141, No Iterations 6
time step continuity errors : sum local = 1.9374e-07, global = 1.74511e-18, cumulative = -4.82101e-17
Pressure gradient source: uncorrected Ubar = 1.00001, pressure gradient = 0.0429986
smoothSolver:  Solving for omega, Initial residual = 8.65716e-06, Final residual = 8.65716e-06, No Iterations 0
smoothSolver:  Solving for k, Initial residual = 0.0108269, Final residual = 0.000881508, No Iterations 5
ExecutionTime = 0.077025 s  ClockTime = 0 s

Time = 32s

smoothSolver:  Solving for Ux, Initial residual = 0.000627401, Final residual = 4.63116e-05, No Iterations 5
smoothSolver:  Solving for Uy, Initial residual = 0.0677158, Final residual = 0.00472024, No Iterations 5
Pressure gradient source: uncorrected Ubar = 1.00005, pressure gradient = 0.0400503
GAMG:  Solving for p, Initial residual = 0.0554671, Final residual = 0.00527534, No Iterations 5
time step continuity errors : sum local = 3.23091e-07, global = -4.94571e-18, cumulative = -5.31558e-17
Pressure gradient source: uncorrected Ubar = 1, pressure gradient = 0.0427493
smoothSolver:  Solving for omega, Initial residual = 8.65764e-06, Final residual = 8.65764e-06, No Iterations 0
smoothSolver:  Solving for k, Initial residual = 0.0108067, Final residual = 0.000946786, No Iterations 5
ExecutionTime = 0.079001 s  ClockTime = 0 s

Time = 33s

smoothSolver:  Solving for Ux, Initial residual = 0.000584492, Final residual = 4.32946e-05, No Iterations 5
smoothSolver:  Solving for Uy, Initial residual = 0.064192, Final residual = 0.00467803, No Iterations 5
Pressure gradient source: uncorrected Ubar = 1.00005, pressure gradient = 0.0400539
GAMG:  Solving for p, Initial residual = 0.0522069, Final residual = 0.00289195, No Iterations 6
time step continuity errors : sum local = 1.49678e-07, global = 1.8595e-18, cumulative = -5.12963e-17
Pressure gradient source: uncorrected Ubar = 1, pressure gradient = 0.042525
smoothSolver:  Solving for omega, Initial residual = 8.65795e-06, Final residual = 8.65795e-06, No Iterations 0
smoothSolver:  Solving for k, Initial residual = 0.0107846, Final residual = 0.000903746, No Iterations 5
ExecutionTime = 0.081099 s  ClockTime = 0 s

Time = 34s

smoothSolver:  Solving for Ux, Initial residual = 0.000545862, Final residual = 4.05557e-05, No Iterations 5
smoothSolver:  Solving for Uy, Initial residual = 0.064322, Final residual = 0.00462851, No Iterations 5
Pressure gradient source: uncorrected Ubar = 1.00004, pressure gradient = 0.0400565
GAMG:  Solving for p, Initial residual = 0.0490704, Final residual = 0.00454459, No Iterations 4
time step continuity errors : sum local = 2.05598e-07, global = 1.95407e-18, cumulative = -4.93423e-17
Pressure gradient source: uncorrected Ubar = 1, pressure gradient = 0.0423229
smoothSolver:  Solving for omega, Initial residual = 8.65827e-06, Final residual = 8.65827e-06, No Iterations 0
smoothSolver:  Solving for k, Initial residual = 0.0107603, Final residual = 0.000909925, No Iterations 5
ExecutionTime = 0.083252 s  ClockTime = 0 s

Time = 35s

smoothSolver:  Solving for Ux, Initial residual = 0.000510202, Final residual = 3.80254e-05, No Iterations 5
smoothSolver:  Solving for Uy, Initial residual = 0.0648738, Final residual = 0.00478967, No Iterations 5
Pressure gradient source: uncorrected Ubar = 1.00004, pressure gradient = 0.0400574
GAMG:  Solving for p, Initial residual = 0.0457606, Final residual = 0.00388407, No Iterations 4
time step continuity errors : sum local = 1.6063e-07, global = 4.68069e-18, cumulative = -4.46616e-17
Pressure gradient source: uncorrected Ubar = 1, pressure gradient = 0.0421404
smoothSolver:  Solving for omega, Initial residual = 8.65856e-06, Final residual = 8.65856e-06, No Iterations 0
smoothSolver:  Solving for k, Initial residual = 0.0107342, Final residual = 0.000900295, No Iterations 5
ExecutionTime = 0.085332 s  ClockTime = 0 s

Time = 36s

smoothSolver:  Solving for Ux, Initial residual = 0.000477799, Final residual = 3.57588e-05, No Iterations 5
smoothSolver:  Solving for Uy, Initial residual = 0.064782, Final residual = 0.00477771, No Iterations 5
Pressure gradient source: uncorrected Ubar = 1.00004, pressure gradient = 0.0400575
GAMG:  Solving for p, Initial residual = 0.0424247, Final residual = 0.00361347, No Iterations 4
time step continuity errors : sum local = 1.38268e-07, global = -7.87938e-18, cumulative = -5.2541e-17
Pressure gradient source: uncorrected Ubar = 1, pressure gradient = 0.0419752
smoothSolver:  Solving for omega, Initial residual = 8.6588e-06, Final residual = 8.6588e-06, No Iterations 0
smoothSolver:  Solving for k, Initial residual = 0.0107166, Final residual = 0.000913751, No Iterations 5
ExecutionTime = 0.087389 s  ClockTime = 0 s

Time = 37s

smoothSolver:  Solving for Ux, Initial residual = 0.000448928, Final residual = 3.36917e-05, No Iterations 5
smoothSolver:  Solving for Uy, Initial residual = 0.0628943, Final residual = 0.00465019, No Iterations 5
Pressure gradient source: uncorrected Ubar = 1.00003, pressure gradient = 0.0400567
GAMG:  Solving for p, Initial residual = 0.0397729, Final residual = 0.00242114, No Iterations 4
time step continuity errors : sum local = 8.47816e-08, global = -6.41439e-18, cumulative = -5.89553e-17
Pressure gradient source: uncorrected Ubar = 1, pressure gradient = 0.0418256
smoothSolver:  Solving for omega, Initial residual = 8.65907e-06, Final residual = 8.65907e-06, No Iterations 0
smoothSolver:  Solving for k, Initial residual = 0.0107028, Final residual = 0.000941395, No Iterations 5
ExecutionTime = 0.089326 s  ClockTime = 0 s

Time = 38s

smoothSolver:  Solving for Ux, Initial residual = 0.000422379, Final residual = 3.18031e-05, No Iterations 5
smoothSolver:  Solving for Uy, Initial residual = 0.0605113, Final residual = 0.00456802, No Iterations 5
Pressure gradient source: uncorrected Ubar = 1.00003, pressure gradient = 0.0400553
GAMG:  Solving for p, Initial residual = 0.0371573, Final residual = 0.00348694, No Iterations 3
time step continuity errors : sum local = 1.17522e-07, global = -1.0185e-17, cumulative = -6.91403e-17
Pressure gradient source: uncorrected Ubar = 1, pressure gradient = 0.0416898
smoothSolver:  Solving for omega, Initial residual = 8.65932e-06, Final residual = 8.65932e-06, No Iterations 0
smoothSolver:  Solving for k, Initial residual = 0.0106881, Final residual = 0.000907189, No Iterations 5
ExecutionTime = 0.09126 s  ClockTime = 0 s

Time = 39s

smoothSolver:  Solving for Ux, Initial residual = 0.000398137, Final residual = 3.01315e-05, No Iterations 5
smoothSolver:  Solving for Uy, Initial residual = 0.058166, Final residual = 0.00451319, No Iterations 5
Pressure gradient source: uncorrected Ubar = 1.00003, pressure gradient = 0.0400535
GAMG:  Solving for p, Initial residual = 0.0348885, Final residual = 0.00332163, No Iterations 3
time step continuity errors : sum local = 1.02186e-07, global = 1.11139e-17, cumulative = -5.80264e-17
Pressure gradient source: uncorrected Ubar = 1, pressure gradient = 0.0415663
smoothSolver:  Solving for omega, Initial residual = 8.6595e-06, Final residual = 8.6595e-06, No Iterations 0
smoothSolver:  Solving for k, Initial residual = 0.0106661, Final residual = 0.000902925, No Iterations 5
ExecutionTime = 0.093225 s  ClockTime = 0 s

Time = 40s

smoothSolver:  Solving for Ux, Initial residual = 0.00037606, Final residual = 2.86472e-05, No Iterations 5
smoothSolver:  Solving for Uy, Initial residual = 0.056495, Final residual = 0.0044083, No Iterations 5
Pressure gradient source: uncorrected Ubar = 1.00003, pressure gradient = 0.0400513
GAMG:  Solving for p, Initial residual = 0.034194, Final residual = 0.00219604, No Iterations 4
time step continuity errors : sum local = 6.3171e-08, global = 2.99662e-18, cumulative = -5.50298e-17
Pressure gradient source: uncorrected Ubar = 1, pressure gradient = 0.0414539
smoothSolver:  Solving for omega, Initial residual = 8.65967e-06, Final residual = 8.65967e-06, No Iterations 0
smoothSolver:  Solving for k, Initial residual = 0.0106549, Final residual = 0.000942134, No Iterations 5
ExecutionTime = 0.095186 s  ClockTime = 0 s

Time = 41s

smoothSolver:  Solving for Ux, Initial residual = 0.000355756, Final residual = 2.73076e-05, No Iterations 5
smoothSolver:  Solving for Uy, Initial residual = 0.0550198, Final residual = 0.00436861, No Iterations 5
Pressure gradient source: uncorrected Ubar = 1.00003, pressure gradient = 0.0400489
GAMG:  Solving for p, Initial residual = 0.0334795, Final residual = 0.00242083, No Iterations 4
time step continuity errors : sum local = 6.58959e-08, global = 5.74123e-18, cumulative = -4.92886e-17
Pressure gradient source: uncorrected Ubar = 1, pressure gradient = 0.0413512
smoothSolver:  Solving for omega, Initial residual = 8.65976e-06, Final residual = 8.65976e-06, No Iterations 0
smoothSolver:  Solving for k, Initial residual = 0.0106395, Final residual = 0.000903373, No Iterations 5
ExecutionTime = 0.097168 s  ClockTime = 0 s

Time = 42s

smoothSolver:  Solving for Ux, Initial residual = 0.000337138, Final residual = 2.60955e-05, No Iterations 5
smoothSolver:  Solving for Uy, Initial residual = 0.0547617, Final residual = 0.00433505, No Iterations 5
Pressure gradient source: uncorrected Ubar = 1.00002, pressure gradient = 0.0400463
GAMG:  Solving for p, Initial residual = 0.0330874, Final residual = 0.00191726, No Iterations 4
time step continuity errors : sum local = 4.99114e-08, global = -5.78259e-18, cumulative = -5.50711e-17
Pressure gradient source: uncorrected Ubar = 1, pressure gradient = 0.0412575
smoothSolver:  Solving for omega, Initial residual = 8.65989e-06, Final residual = 8.65989e-06, No Iterations 0
smoothSolver:  Solving for k, Initial residual = 0.010616, Final residual = 0.000858051, No Iterations 5
ExecutionTime = 0.099394 s  ClockTime = 0 s

Time = 43s

smoothSolver:  Solving for Ux, Initial residual = 0.00032012, Final residual = 2.50068e-05, No Iterations 5
smoothSolver:  Solving for Uy, Initial residual = 0.0530356, Final residual = 0.00422289, No Iterations 5
Pressure gradient source: uncorrected Ubar = 1.00002, pressure gradient = 0.0400436
GAMG:  Solving for p, Initial residual = 0.0321382, Final residual = 0.00197376, No Iterations 4
time step continuity errors : sum local = 4.84144e-08, global = -2.18474e-19, cumulative = -5.52896e-17
Pressure gradient source: uncorrected Ubar = 1, pressure gradient = 0.0411717
smoothSolver:  Solving for omega, Initial residual = 8.66001e-06, Final residual = 8.66001e-06, No Iterations 0
smoothSolver:  Solving for k, Initial residual = 0.010607, Final residual = 0.000915275, No Iterations 5
ExecutionTime = 0.101624 s  ClockTime = 0 s

Time = 44s

smoothSolver:  Solving for Ux, Initial residual = 0.000304946, Final residual = 2.40367e-05, No Iterations 5
smoothSolver:  Solving for Uy, Initial residual = 0.0516916, Final residual = 0.00410551, No Iterations 5
Pressure gradient source: uncorrected Ubar = 1.00002, pressure gradient = 0.0400407
GAMG:  Solving for p, Initial residual = 0.0311942, Final residual = 0.00204064, No Iterations 4
time step continuity errors : sum local = 4.73163e-08, global = -4.38679e-18, cumulative = -5.96764e-17
Pressure gradient source: uncorrected Ubar = 1, pressure gradient = 0.0410931
smoothSolver:  Solving for omega, Initial residual = 8.66012e-06, Final residual = 8.66012e-06, No Iterations 0
smoothSolver:  Solving for k, Initial residual = 0.0105932, Final residual = 0.000903181, No Iterations 5
ExecutionTime = 0.103989 s  ClockTime = 0 s

Time = 45s

smoothSolver:  Solving for Ux, Initial residual = 0.000291269, Final residual = 2.31788e-05, No Iterations 5
smoothSolver:  Solving for Uy, Initial residual = 0.0503882, Final residual = 0.00397756, No Iterations 5
Pressure gradient source: uncorrected Ubar = 1.00002, pressure gradient = 0.0400379
GAMG:  Solving for p, Initial residual = 0.0303057, Final residual = 0.00208708, No Iterations 4
time step continuity errors : sum local = 4.58776e-08, global = -1.03675e-17, cumulative = -7.00439e-17
Pressure gradient source: uncorrected Ubar = 1, pressure gradient = 0.0410209
smoothSolver:  Solving for omega, Initial residual = 8.66021e-06, Final residual = 8.66021e-06, No Iterations 0
smoothSolver:  Solving for k, Initial residual = 0.0105627, Final residual = 0.000839618, No Iterations 5
ExecutionTime = 0.106417 s  ClockTime = 0 s

Time = 46s

smoothSolver:  Solving for Ux, Initial residual = 0.000278823, Final residual = 2.2435e-05, No Iterations 5
smoothSolver:  Solving for Uy, Initial residual = 0.0487685, Final residual = 0.00382949, No Iterations 5
Pressure gradient source: uncorrected Ubar = 1.00002, pressure gradient = 0.040035
GAMG:  Solving for p, Initial residual = 0.0291326, Final residual = 0.00216447, No Iterations 4
time step continuity errors : sum local = 4.49695e-08, global = -6.35493e-18, cumulative = -7.63988e-17
Pressure gradient source: uncorrected Ubar = 1, pressure gradient = 0.0409545
smoothSolver:  Solving for omega, Initial residual = 8.66029e-06, Final residual = 8.66029e-06, No Iterations 0
smoothSolver:  Solving for k, Initial residual = 0.0105415, Final residual = 0.000822978, No Iterations 5
ExecutionTime = 0.108656 s  ClockTime = 0 s

Time = 47s

smoothSolver:  Solving for Ux, Initial residual = 0.000267575, Final residual = 2.18134e-05, No Iterations 5
smoothSolver:  Solving for Uy, Initial residual = 0.0471898, Final residual = 0.00367782, No Iterations 5
Pressure gradient source: uncorrected Ubar = 1.00002, pressure gradient = 0.0400322
GAMG:  Solving for p, Initial residual = 0.0282216, Final residual = 0.00152332, No Iterations 5
time step continuity errors : sum local = 3.00195e-08, global = 9.16276e-18, cumulative = -6.7236e-17
Pressure gradient source: uncorrected Ubar = 1, pressure gradient = 0.0408934
smoothSolver:  Solving for omega, Initial residual = 8.66037e-06, Final residual = 8.66037e-06, No Iterations 0
smoothSolver:  Solving for k, Initial residual = 0.010538, Final residual = 0.000942544, No Iterations 5
ExecutionTime = 0.11079 s  ClockTime = 0 s

Time = 48s

smoothSolver:  Solving for Ux, Initial residual = 0.000257481, Final residual = 2.1298e-05, No Iterations 5
smoothSolver:  Solving for Uy, Initial residual = 0.0457684, Final residual = 0.00358367, No Iterations 5
Pressure gradient source: uncorrected Ubar = 1.00002, pressure gradient = 0.0400293
GAMG:  Solving for p, Initial residual = 0.0269515, Final residual = 0.00253537, No Iterations 4
time step continuity errors : sum local = 4.38188e-08, global = 2.9216e-18, cumulative = -6.43144e-17
Pressure gradient source: uncorrected Ubar = 1, pressure gradient = 0.0408371
smoothSolver:  Solving for omega, Initial residual = 8.66046e-06, Final residual = 8.66046e-06, No Iterations 0
smoothSolver:  Solving for k, Initial residual = 0.0105332, Final residual = 0.000944732, No Iterations 5
ExecutionTime = 0.112876 s  ClockTime = 0 s

Time = 49s

smoothSolver:  Solving for Ux, Initial residual = 0.000248409, Final residual = 2.08801e-05, No Iterations 5
smoothSolver:  Solving for Uy, Initial residual = 0.0427705, Final residual = 0.00331722, No Iterations 5
Pressure gradient source: uncorrected Ubar = 1.00001, pressure gradient = 0.0400266
GAMG:  Solving for p, Initial residual = 0.0260957, Final residual = 0.00195219, No Iterations 5
time step continuity errors : sum local = 3.34181e-08, global = 6.48481e-19, cumulative = -6.3666e-17
Pressure gradient source: uncorrected Ubar = 1, pressure gradient = 0.0407851
smoothSolver:  Solving for omega, Initial residual = 8.6605e-06, Final residual = 8.6605e-06, No Iterations 0
smoothSolver:  Solving for k, Initial residual = 0.0105052, Final residual = 0.000827653, No Iterations 5
ExecutionTime = 0.115132 s  ClockTime = 1 s

Time = 50s

smoothSolver:  Solving for Ux, Initial residual = 0.000240415, Final residual = 2.05544e-05, No Iterations 5
smoothSolver:  Solving for Uy, Initial residual = 0.0415591, Final residual = 0.00320049, No Iterations 5
Pressure gradient source: uncorrected Ubar = 1.00001, pressure gradient = 0.0400239
GAMG:  Solving for p, Initial residual = 0.0247109, Final residual = 0.00169142, No Iterations 5
time step continuity errors : sum local = 2.78e-08, global = 3.46164e-18, cumulative = -6.02043e-17
Pressure gradient source: uncorrected Ubar = 1, pressure gradient = 0.040737
smoothSolver:  Solving for omega, Initial residual = 8.66054e-06, Final residual = 8.66054e-06, No Iterations 0
smoothSolver:  Solving for k, Initial residual = 0.0104825, Final residual = 0.000824014, No Iterations 5
ExecutionTime = 0.118429 s  ClockTime = 1 s

Time = 51s

smoothSolver:  Solving for Ux, Initial residual = 0.000233468, Final residual = 2.02567e-05, No Iterations 5
smoothSolver:  Solving for Uy, Initial residual = 0.0396626, Final residual = 0.00301166, No Iterations 5
Pressure gradient source: uncorrected Ubar = 1.00001, pressure gradient = 0.0400212
GAMG:  Solving for p, Initial residual = 0.0238806, Final residual = 0.00213526, No Iterations 4
time step continuity errors : sum local = 3.37584e-08, global = -4.43839e-19, cumulative = -6.06482e-17
Pressure gradient source: uncorrected Ubar = 1, pressure gradient = 0.0406925
smoothSolver:  Solving for omega, Initial residual = 8.66057e-06, Final residual = 8.66057e-06, No Iterations 0
smoothSolver:  Solving for k, Initial residual = 0.0104768, Final residual = 0.000906138, No Iterations 5
ExecutionTime = 0.122081 s  ClockTime = 1 s

Time = 52s

smoothSolver:  Solving for Ux, Initial residual = 0.000227391, Final residual = 1.9947e-05, No Iterations 5
smoothSolver:  Solving for Uy, Initial residual = 0.0370114, Final residual = 0.00276033, No Iterations 5
Pressure gradient source: uncorrected Ubar = 1.00001, pressure gradient = 0.0400186
GAMG:  Solving for p, Initial residual = 0.0233544, Final residual = 0.00184385, No Iterations 5
time step continuity errors : sum local = 2.69905e-08, global = -1.1729e-17, cumulative = -7.23771e-17
Pressure gradient source: uncorrected Ubar = 1, pressure gradient = 0.0406512
smoothSolver:  Solving for omega, Initial residual = 8.66061e-06, Final residual = 8.66061e-06, No Iterations 0
smoothSolver:  Solving for k, Initial residual = 0.0104693, Final residual = 0.00091037, No Iterations 5
ExecutionTime = 0.125153 s  ClockTime = 1 s

Time = 53s

smoothSolver:  Solving for Ux, Initial residual = 0.000221578, Final residual = 1.96274e-05, No Iterations 5
smoothSolver:  Solving for Uy, Initial residual = 0.0355993, Final residual = 0.00267978, No Iterations 5
Pressure gradient source: uncorrected Ubar = 1.00001, pressure gradient = 0.0400162
GAMG:  Solving for p, Initial residual = 0.0223637, Final residual = 0.00220588, No Iterations 4
time step continuity errors : sum local = 3.19142e-08, global = -7.22198e-19, cumulative = -7.30993e-17
Pressure gradient source: uncorrected Ubar = 1, pressure gradient = 0.0406129
smoothSolver:  Solving for omega, Initial residual = 8.66062e-06, Final residual = 8.66062e-06, No Iterations 0
smoothSolver:  Solving for k, Initial residual = 0.0104653, Final residual = 0.000945, No Iterations 5
ExecutionTime = 0.127268 s  ClockTime = 1 s

Time = 54s

smoothSolver:  Solving for Ux, Initial residual = 0.000215997, Final residual = 1.92995e-05, No Iterations 5
smoothSolver:  Solving for Uy, Initial residual = 0.0336939, Final residual = 0.002446, No Iterations 5
Pressure gradient source: uncorrected Ubar = 1.00001, pressure gradient = 0.0400137
GAMG:  Solving for p, Initial residual = 0.0220756, Final residual = 0.00118225, No Iterations 5
time step continuity errors : sum local = 1.72938e-08, global = 3.44152e-18, cumulative = -6.96578e-17
Pressure gradient source: uncorrected Ubar = 1, pressure gradient = 0.0405773
smoothSolver:  Solving for omega, Initial residual = 8.66063e-06, Final residual = 8.66063e-06, No Iterations 0
smoothSolver:  Solving for k, Initial residual = 0.0104369, Final residual = 0.000801259, No Iterations 5
ExecutionTime = 0.129416 s  ClockTime = 1 s

Time = 55s

smoothSolver:  Solving for Ux, Initial residual = 0.000210544, Final residual = 1.89755e-05, No Iterations 5
smoothSolver:  Solving for Uy, Initial residual = 0.0323783, Final residual = 0.00235026, No Iterations 5
Pressure gradient source: uncorrected Ubar = 1.00001, pressure gradient = 0.0400114
GAMG:  Solving for p, Initial residual = 0.0212012, Final residual = 0.00161452, No Iterations 4
time step continuity errors : sum local = 2.10724e-08, global = -4.72408e-18, cumulative = -7.43819e-17
Pressure gradient source: uncorrected Ubar = 1, pressure gradient = 0.0405442
smoothSolver:  Solving for omega, Initial residual = 8.66065e-06, Final residual = 8.66065e-06, No Iterations 0
smoothSolver:  Solving for k, Initial residual = 0.0104271, Final residual = 0.000872405, No Iterations 5
ExecutionTime = 0.131468 s  ClockTime = 1 s

Time = 56s

smoothSolver:  Solving for Ux, Initial residual = 0.000205216, Final residual = 1.86507e-05, No Iterations 5
smoothSolver:  Solving for Uy, Initial residual = 0.0302145, Final residual = 0.00215289, No Iterations 5
Pressure gradient source: uncorrected Ubar = 1.00001, pressure gradient = 0.0400091
GAMG:  Solving for p, Initial residual = 0.0205644, Final residual = 0.00143324, No Iterations 4
time step continuity errors : sum local = 1.80112e-08, global = 1.35817e-17, cumulative = -6.08002e-17
Pressure gradient source: uncorrected Ubar = 1, pressure gradient = 0.0405133
smoothSolver:  Solving for omega, Initial residual = 8.66066e-06, Final residual = 8.66066e-06, No Iterations 0
smoothSolver:  Solving for k, Initial residual = 0.0104107, Final residual = 0.000836802, No Iterations 5
ExecutionTime = 0.133853 s  ClockTime = 1 s

Time = 57s

smoothSolver:  Solving for Ux, Initial residual = 0.000200011, Final residual = 1.8325e-05, No Iterations 5
smoothSolver:  Solving for Uy, Initial residual = 0.0287376, Final residual = 0.00200913, No Iterations 5
Pressure gradient source: uncorrected Ubar = 1.00001, pressure gradient = 0.040007
GAMG:  Solving for p, Initial residual = 0.0199871, Final residual = 0.00115109, No Iterations 4
time step continuity errors : sum local = 1.39948e-08, global = -3.0477e-18, cumulative = -6.38479e-17
Pressure gradient source: uncorrected Ubar = 1, pressure gradient = 0.0404845
smoothSolver:  Solving for omega, Initial residual = 8.66065e-06, Final residual = 8.66065e-06, No Iterations 0
smoothSolver:  Solving for k, Initial residual = 0.0104025, Final residual = 0.000882648, No Iterations 5
ExecutionTime = 0.137224 s  ClockTime = 1 s

Time = 58s

smoothSolver:  Solving for Ux, Initial residual = 0.000194926, Final residual = 1.79957e-05, No Iterations 5
smoothSolver:  Solving for Uy, Initial residual = 0.0275092, Final residual = 0.00187472, No Iterations 5
Pressure gradient source: uncorrected Ubar = 1.00001, pressure gradient = 0.0400049
GAMG:  Solving for p, Initial residual = 0.0194078, Final residual = 0.000887509, No Iterations 4
time step continuity errors : sum local = 1.04596e-08, global = -2.22793e-18, cumulative = -6.60758e-17
Pressure gradient source: uncorrected Ubar = 1, pressure gradient = 0.0404577
smoothSolver:  Solving for omega, Initial residual = 8.66065e-06, Final residual = 8.66065e-06, No Iterations 0
smoothSolver:  Solving for k, Initial residual = 0.0103948, Final residual = 0.000895864, No Iterations 5
ExecutionTime = 0.139345 s  ClockTime = 1 s

Time = 59s

smoothSolver:  Solving for Ux, Initial residual = 0.000189959, Final residual = 1.76625e-05, No Iterations 5
smoothSolver:  Solving for Uy, Initial residual = 0.026316, Final residual = 0.00174667, No Iterations 5
Pressure gradient source: uncorrected Ubar = 1.00001, pressure gradient = 0.0400029
GAMG:  Solving for p, Initial residual = 0.0188322, Final residual = 0.00183762, No Iterations 3
time step continuity errors : sum local = 2.1864e-08, global = -4.93666e-18, cumulative = -7.10125e-17
Pressure gradient source: uncorrected Ubar = 1, pressure gradient = 0.0404326
smoothSolver:  Solving for omega, Initial residual = 8.66063e-06, Final residual = 8.66063e-06, No Iterations 0
smoothSolver:  Solving for k, Initial residual = 0.0103896, Final residual = 0.000906099, No Iterations 5
ExecutionTime = 0.141303 s  ClockTime = 1 s

Time = 60s

smoothSolver:  Solving for Ux, Initial residual = 0.00018513, Final residual = 1.73266e-05, No Iterations 5
smoothSolver:  Solving for Uy, Initial residual = 0.0255431, Final residual = 0.00163143, No Iterations 5
Pressure gradient source: uncorrected Ubar = 1.00001, pressure gradient = 0.0400009
GAMG:  Solving for p, Initial residual = 0.0184462, Final residual = 0.00161005, No Iterations 3
time step continuity errors : sum local = 1.79651e-08, global = 7.37919e-18, cumulative = -6.36333e-17
Pressure gradient source: uncorrected Ubar = 1, pressure gradient = 0.0404091
smoothSolver:  Solving for omega, Initial residual = 8.66063e-06, Final residual = 8.66063e-06, No Iterations 0
smoothSolver:  Solving for k, Initial residual = 0.0103761, Final residual = 0.000849776, No Iterations 5
ExecutionTime = 0.143233 s  ClockTime = 1 s

Time = 61s

smoothSolver:  Solving for Ux, Initial residual = 0.000180518, Final residual = 1.6989e-05, No Iterations 5
smoothSolver:  Solving for Uy, Initial residual = 0.0240008, Final residual = 0.00151023, No Iterations 5
Pressure gradient source: uncorrected Ubar = 1.00001, pressure gradient = 0.0399991
GAMG:  Solving for p, Initial residual = 0.0178463, Final residual = 0.00153921, No Iterations 3
time step continuity errors : sum local = 1.66694e-08, global = 1.04068e-18, cumulative = -6.25926e-17
Pressure gradient source: uncorrected Ubar = 1, pressure gradient = 0.040387
smoothSolver:  Solving for omega, Initial residual = 8.66062e-06, Final residual = 8.66062e-06, No Iterations 0
smoothSolver:  Solving for k, Initial residual = 0.0103544, Final residual = 0.00081447, No Iterations 5
ExecutionTime = 0.14512 s  ClockTime = 1 s

Time = 62s

smoothSolver:  Solving for Ux, Initial residual = 0.000176002, Final residual = 1.66505e-05, No Iterations 5
smoothSolver:  Solving for Uy, Initial residual = 0.0229362, Final residual = 0.00139999, No Iterations 5
Pressure gradient source: uncorrected Ubar = 1.00001, pressure gradient = 0.0399973
GAMG:  Solving for p, Initial residual = 0.0174343, Final residual = 0.000738421, No Iterations 4
time step continuity errors : sum local = 7.89011e-09, global = 4.25775e-18, cumulative = -5.83349e-17
Pressure gradient source: uncorrected Ubar = 1, pressure gradient = 0.0403664
smoothSolver:  Solving for omega, Initial residual = 8.6606e-06, Final residual = 8.6606e-06, No Iterations 0
smoothSolver:  Solving for k, Initial residual = 0.0103404, Final residual = 0.000832775, No Iterations 5
ExecutionTime = 0.147191 s  ClockTime = 1 s

Time = 63s

smoothSolver:  Solving for Ux, Initial residual = 0.000171582, Final residual = 1.6312e-05, No Iterations 5
smoothSolver:  Solving for Uy, Initial residual = 0.0217137, Final residual = 0.00213148, No Iterations 4
Pressure gradient source: uncorrected Ubar = 1.00001, pressure gradient = 0.0399955
GAMG:  Solving for p, Initial residual = 0.0168146, Final residual = 0.000879048, No Iterations 4
time step continuity errors : sum local = 8.94056e-09, global = 2.21932e-18, cumulative = -5.61156e-17
Pressure gradient source: uncorrected Ubar = 1, pressure gradient = 0.040347
smoothSolver:  Solving for omega, Initial residual = 8.66058e-06, Final residual = 8.66058e-06, No Iterations 0
smoothSolver:  Solving for k, Initial residual = 0.0103246, Final residual = 0.000824277, No Iterations 5
ExecutionTime = 0.150049 s  ClockTime = 1 s

Time = 64s

smoothSolver:  Solving for Ux, Initial residual = 0.000167258, Final residual = 1.59741e-05, No Iterations 5
smoothSolver:  Solving for Uy, Initial residual = 0.0212444, Final residual = 0.00203863, No Iterations 4
Pressure gradient source: uncorrected Ubar = 1.00001, pressure gradient = 0.0399939
GAMG:  Solving for p, Initial residual = 0.016727, Final residual = 0.00100668, No Iterations 4
time step continuity errors : sum local = 1.02916e-08, global = -1.05397e-17, cumulative = -6.66552e-17
Pressure gradient source: uncorrected Ubar = 1, pressure gradient = 0.0403288
smoothSolver:  Solving for omega, Initial residual = 8.66056e-06, Final residual = 8.66056e-06, No Iterations 0
smoothSolver:  Solving for k, Initial residual = 0.0103271, Final residual = 0.000909204, No Iterations 5
ExecutionTime = 0.15232 s  ClockTime = 1 s

Time = 65s

smoothSolver:  Solving for Ux, Initial residual = 0.000163027, Final residual = 1.56411e-05, No Iterations 5
smoothSolver:  Solving for Uy, Initial residual = 0.0205404, Final residual = 0.00193182, No Iterations 4
Pressure gradient source: uncorrected Ubar = 1.00001, pressure gradient = 0.0399923
GAMG:  Solving for p, Initial residual = 0.016627, Final residual = 0.0013709, No Iterations 4
time step continuity errors : sum local = 1.34854e-08, global = 1.84239e-18, cumulative = -6.48128e-17
Pressure gradient source: uncorrected Ubar = 1, pressure gradient = 0.0403117
smoothSolver:  Solving for omega, Initial residual = 8.66054e-06, Final residual = 8.66054e-06, No Iterations 0
smoothSolver:  Solving for k, Initial residual = 0.0103061, Final residual = 0.000821781, No Iterations 5
ExecutionTime = 0.154331 s  ClockTime = 1 s

Time = 66s

smoothSolver:  Solving for Ux, Initial residual = 0.00015889, Final residual = 1.53142e-05, No Iterations 5
smoothSolver:  Solving for Uy, Initial residual = 0.0199584, Final residual = 0.00181174, No Iterations 4
Pressure gradient source: uncorrected Ubar = 1.00001, pressure gradient = 0.0399908
GAMG:  Solving for p, Initial residual = 0.01664, Final residual = 0.00158719, No Iterations 4
time step continuity errors : sum local = 1.52559e-08, global = 2.76515e-18, cumulative = -6.20477e-17
Pressure gradient source: uncorrected Ubar = 1, pressure gradient = 0.0402955
smoothSolver:  Solving for omega, Initial residual = 8.66051e-06, Final residual = 8.66051e-06, No Iterations 0
smoothSolver:  Solving for k, Initial residual = 0.0102974, Final residual = 0.000863866, No Iterations 5
ExecutionTime = 0.156302 s  ClockTime = 1 s

Time = 67s

smoothSolver:  Solving for Ux, Initial residual = 0.000154844, Final residual = 1.49896e-05, No Iterations 5
smoothSolver:  Solving for Uy, Initial residual = 0.0193702, Final residual = 0.0017126, No Iterations 4
Pressure gradient source: uncorrected Ubar = 1.00001, pressure gradient = 0.0399893
GAMG:  Solving for p, Initial residual = 0.0166091, Final residual = 0.0009729, No Iterations 5
time step continuity errors : sum local = 8.90269e-09, global = 1.29203e-18, cumulative = -6.07557e-17
Pressure gradient source: uncorrected Ubar = 1, pressure gradient = 0.0402803
smoothSolver:  Solving for omega, Initial residual = 8.66048e-06, Final residual = 8.66048e-06, No Iterations 0
smoothSolver:  Solving for k, Initial residual = 0.0102804, Final residual = 0.000814642, No Iterations 5
ExecutionTime = 0.158285 s  ClockTime = 1 s

Time = 68s

smoothSolver:  Solving for Ux, Initial residual = 0.000150889, Final residual = 1.46691e-05, No Iterations 5
smoothSolver:  Solving for Uy, Initial residual = 0.0188924, Final residual = 0.00156924, No Iterations 4
Pressure gradient source: uncorrected Ubar = 1.00001, pressure gradient = 0.0399879
GAMG:  Solving for p, Initial residual = 0.0163502, Final residual = 0.00155452, No Iterations 4
time step continuity errors : sum local = 1.40138e-08, global = -1.29993e-18, cumulative = -6.20556e-17
Pressure gradient source: uncorrected Ubar = 1, pressure gradient = 0.040266
smoothSolver:  Solving for omega, Initial residual = 8.66046e-06, Final residual = 8.66046e-06, No Iterations 0
smoothSolver:  Solving for k, Initial residual = 0.0102631, Final residual = 0.00081111, No Iterations 5
ExecutionTime = 0.160212 s  ClockTime = 1 s

Time = 69s

smoothSolver:  Solving for Ux, Initial residual = 0.000147024, Final residual = 1.43509e-05, No Iterations 5
smoothSolver:  Solving for Uy, Initial residual = 0.0187077, Final residual = 0.00158341, No Iterations 4
Pressure gradient source: uncorrected Ubar = 1.00001, pressure gradient = 0.0399865
GAMG:  Solving for p, Initial residual = 0.0163428, Final residual = 0.00108491, No Iterations 5
time step continuity errors : sum local = 9.35918e-09, global = 3.29095e-18, cumulative = -5.87646e-17
Pressure gradient source: uncorrected Ubar = 1, pressure gradient = 0.0402525
smoothSolver:  Solving for omega, Initial residual = 8.66042e-06, Final residual = 8.66042e-06, No Iterations 0
smoothSolver:  Solving for k, Initial residual = 0.0102681, Final residual = 0.000901792, No Iterations 5
ExecutionTime = 0.162182 s  ClockTime = 1 s

Time = 70s

smoothSolver:  Solving for Ux, Initial residual = 0.000143247, Final residual = 1.40354e-05, No Iterations 5
smoothSolver:  Solving for Uy, Initial residual = 0.0184108, Final residual = 0.0014627, No Iterations 4
Pressure gradient source: uncorrected Ubar = 1, pressure gradient = 0.0399852
GAMG:  Solving for p, Initial residual = 0.0159679, Final residual = 0.000992664, No Iterations 5
time step continuity errors : sum local = 8.22626e-09, global = 9.90682e-18, cumulative = -4.88578e-17
Pressure gradient source: uncorrected Ubar = 1, pressure gradient = 0.0402397
smoothSolver:  Solving for omega, Initial residual = 8.66039e-06, Final residual = 8.66039e-06, No Iterations 0
smoothSolver:  Solving for k, Initial residual = 0.0102538, Final residual = 0.000836113, No Iterations 5
ExecutionTime = 0.164403 s  ClockTime = 1 s

Time = 71s

smoothSolver:  Solving for Ux, Initial residual = 0.000139591, Final residual = 1.37229e-05, No Iterations 5
smoothSolver:  Solving for Uy, Initial residual = 0.0179292, Final residual = 0.00143985, No Iterations 4
Pressure gradient source: uncorrected Ubar = 1, pressure gradient = 0.039984
GAMG:  Solving for p, Initial residual = 0.0158516, Final residual = 0.00099837, No Iterations 5
time step continuity errors : sum local = 8.02041e-09, global = 2.50531e-18, cumulative = -4.63525e-17
Pressure gradient source: uncorrected Ubar = 1, pressure gradient = 0.0402276
smoothSolver:  Solving for omega, Initial residual = 8.66036e-06, Final residual = 8.66036e-06, No Iterations 0
smoothSolver:  Solving for k, Initial residual = 0.0102372, Final residual = 0.000819923, No Iterations 5
ExecutionTime = 0.166981 s  ClockTime = 1 s

Time = 72s

smoothSolver:  Solving for Ux, Initial residual = 0.000136046, Final residual = 1.34138e-05, No Iterations 5
smoothSolver:  Solving for Uy, Initial residual = 0.0179145, Final residual = 0.00144973, No Iterations 4
Pressure gradient source: uncorrected Ubar = 1, pressure gradient = 0.0399828
GAMG:  Solving for p, Initial residual = 0.0156735, Final residual = 0.00104067, No Iterations 5
time step continuity errors : sum local = 8.14162e-09, global = 8.05753e-18, cumulative = -3.8295e-17
Pressure gradient source: uncorrected Ubar = 1, pressure gradient = 0.0402161
smoothSolver:  Solving for omega, Initial residual = 8.66033e-06, Final residual = 8.66033e-06, No Iterations 0
smoothSolver:  Solving for k, Initial residual = 0.0102339, Final residual = 0.00084189, No Iterations 5
ExecutionTime = 0.169054 s  ClockTime = 1 s

Time = 73s

smoothSolver:  Solving for Ux, Initial residual = 0.000132579, Final residual = 1.31083e-05, No Iterations 5
smoothSolver:  Solving for Uy, Initial residual = 0.0178447, Final residual = 0.00145612, No Iterations 4
Pressure gradient source: uncorrected Ubar = 1, pressure gradient = 0.0399816
GAMG:  Solving for p, Initial residual = 0.0155095, Final residual = 0.00108652, No Iterations 5
time step continuity errors : sum local = 8.27633e-09, global = -2.10244e-18, cumulative = -4.03974e-17
Pressure gradient source: uncorrected Ubar = 1, pressure gradient = 0.0402053
smoothSolver:  Solving for omega, Initial residual = 8.6603e-06, Final residual = 8.6603e-06, No Iterations 0
smoothSolver:  Solving for k, Initial residual = 0.0102324, Final residual = 0.00089756, No Iterations 5
ExecutionTime = 0.171105 s  ClockTime = 1 s

Time = 74s

smoothSolver:  Solving for Ux, Initial residual = 0.00012919, Final residual = 1.28068e-05, No Iterations 5
smoothSolver:  Solving for Uy, Initial residual = 0.0177274, Final residual = 0.00145422, No Iterations 4
Pressure gradient source: uncorrected Ubar = 1, pressure gradient = 0.0399805
GAMG:  Solving for p, Initial residual = 0.0153674, Final residual = 0.00112831, No Iterations 5
time step continuity errors : sum local = 8.36036e-09, global = -7.98109e-19, cumulative = -4.11955e-17
Pressure gradient source: uncorrected Ubar = 1, pressure gradient = 0.040195
smoothSolver:  Solving for omega, Initial residual = 8.66027e-06, Final residual = 8.66027e-06, No Iterations 0
smoothSolver:  Solving for k, Initial residual = 0.0102153, Final residual = 0.000826399, No Iterations 5
ExecutionTime = 0.173066 s  ClockTime = 1 s

Time = 75s

smoothSolver:  Solving for Ux, Initial residual = 0.000125877, Final residual = 1.25094e-05, No Iterations 5
smoothSolver:  Solving for Uy, Initial residual = 0.0176089, Final residual = 0.00144824, No Iterations 4
Pressure gradient source: uncorrected Ubar = 1, pressure gradient = 0.0399794
GAMG:  Solving for p, Initial residual = 0.0152392, Final residual = 0.00116281, No Iterations 5
time step continuity errors : sum local = 8.37413e-09, global = 3.05129e-18, cumulative = -3.81442e-17
Pressure gradient source: uncorrected Ubar = 1, pressure gradient = 0.0401853
smoothSolver:  Solving for omega, Initial residual = 8.66023e-06, Final residual = 8.66023e-06, No Iterations 0
smoothSolver:  Solving for k, Initial residual = 0.0101892, Final residual = 0.000749269, No Iterations 5
ExecutionTime = 0.175044 s  ClockTime = 1 s

Time = 76s

smoothSolver:  Solving for Ux, Initial residual = 0.000122639, Final residual = 1.22164e-05, No Iterations 5
smoothSolver:  Solving for Uy, Initial residual = 0.0174807, Final residual = 0.00144195, No Iterations 4
Pressure gradient source: uncorrected Ubar = 1, pressure gradient = 0.0399784
GAMG:  Solving for p, Initial residual = 0.0151448, Final residual = 0.00116461, No Iterations 5
time step continuity errors : sum local = 8.15819e-09, global = 5.53717e-18, cumulative = -3.26071e-17
Pressure gradient source: uncorrected Ubar = 1, pressure gradient = 0.040176
smoothSolver:  Solving for omega, Initial residual = 8.6602e-06, Final residual = 8.6602e-06, No Iterations 0
smoothSolver:  Solving for k, Initial residual = 0.0102098, Final residual = 0.00094486, No Iterations 5
ExecutionTime = 0.177014 s  ClockTime = 1 s

Time = 77s

smoothSolver:  Solving for Ux, Initial residual = 0.000119476, Final residual = 1.19278e-05, No Iterations 5
smoothSolver:  Solving for Uy, Initial residual = 0.0173598, Final residual = 0.00143582, No Iterations 4
Pressure gradient source: uncorrected Ubar = 1, pressure gradient = 0.0399774
GAMG:  Solving for p, Initial residual = 0.0150636, Final residual = 0.00119568, No Iterations 5
time step continuity errors : sum local = 8.13597e-09, global = -2.40442e-18, cumulative = -3.50115e-17
Pressure gradient source: uncorrected Ubar = 1, pressure gradient = 0.0401672
smoothSolver:  Solving for omega, Initial residual = 8.66017e-06, Final residual = 8.66017e-06, No Iterations 0
smoothSolver:  Solving for k, Initial residual = 0.010192, Final residual = 0.000812257, No Iterations 5
ExecutionTime = 0.179012 s  ClockTime = 1 s

Time = 78s

smoothSolver:  Solving for Ux, Initial residual = 0.000116386, Final residual = 7.64894e-06, No Iterations 6
smoothSolver:  Solving for Uy, Initial residual = 0.0172404, Final residual = 0.00142843, No Iterations 4
Pressure gradient source: uncorrected Ubar = 1, pressure gradient = 0.0400418
GAMG:  Solving for p, Initial residual = 0.0782672, Final residual = 0.0047385, No Iterations 4
time step continuity errors : sum local = 2.93947e-08, global = 3.99675e-18, cumulative = -3.10147e-17
Pressure gradient source: uncorrected Ubar = 1, pressure gradient = 0.0401639
smoothSolver:  Solving for omega, Initial residual = 8.66014e-06, Final residual = 8.66014e-06, No Iterations 0
smoothSolver:  Solving for k, Initial residual = 0.0101853, Final residual = 0.000839125, No Iterations 5
ExecutionTime = 0.181032 s  ClockTime = 1 s

Time = 79s

smoothSolver:  Solving for Ux, Initial residual = 0.000113151, Final residual = 7.4428e-06, No Iterations 6
smoothSolver:  Solving for Uy, Initial residual = 0.0494359, Final residual = 0.0038475, No Iterations 4
Pressure gradient source: uncorrected Ubar = 1, pressure gradient = 0.0400183
GAMG:  Solving for p, Initial residual = 0.0723361, Final residual = 0.00321579, No Iterations 4
time step continuity errors : sum local = 1.77158e-08, global = -4.57123e-18, cumulative = -3.55859e-17
Pressure gradient source: uncorrected Ubar = 1, pressure gradient = 0.0401574
smoothSolver:  Solving for omega, Initial residual = 8.6601e-06, Final residual = 8.6601e-06, No Iterations 0
smoothSolver:  Solving for k, Initial residual = 0.0101748, Final residual = 0.000808451, No Iterations 5
ExecutionTime = 0.183589 s  ClockTime = 1 s

Time = 80s

smoothSolver:  Solving for Ux, Initial residual = 0.000110051, Final residual = 7.24932e-06, No Iterations 6
smoothSolver:  Solving for Uy, Initial residual = 0.0686164, Final residual = 0.00513137, No Iterations 4
Pressure gradient source: uncorrected Ubar = 1, pressure gradient = 0.0400151
GAMG:  Solving for p, Initial residual = 0.0609217, Final residual = 0.00243286, No Iterations 4
time step continuity errors : sum local = 1.22038e-08, global = -2.16617e-18, cumulative = -3.77521e-17
Pressure gradient source: uncorrected Ubar = 1, pressure gradient = 0.0401508
smoothSolver:  Solving for omega, Initial residual = 8.66007e-06, Final residual = 8.66007e-06, No Iterations 0
smoothSolver:  Solving for k, Initial residual = 0.0101804, Final residual = 0.000908841, No Iterations 5
ExecutionTime = 0.185654 s  ClockTime = 1 s

Time = 81s

smoothSolver:  Solving for Ux, Initial residual = 0.000107038, Final residual = 7.062e-06, No Iterations 6
smoothSolver:  Solving for Uy, Initial residual = 0.0743357, Final residual = 0.00580899, No Iterations 4
Pressure gradient source: uncorrected Ubar = 1, pressure gradient = 0.0400116
GAMG:  Solving for p, Initial residual = 0.0461299, Final residual = 0.00394783, No Iterations 4
time step continuity errors : sum local = 1.86369e-08, global = 1.22134e-17, cumulative = -2.55388e-17
Pressure gradient source: uncorrected Ubar = 1, pressure gradient = 0.0401442
smoothSolver:  Solving for omega, Initial residual = 8.66003e-06, Final residual = 8.66003e-06, No Iterations 0
smoothSolver:  Solving for k, Initial residual = 0.0101684, Final residual = 0.000831172, No Iterations 5
ExecutionTime = 0.187686 s  ClockTime = 1 s

Time = 82s

smoothSolver:  Solving for Ux, Initial residual = 0.000104113, Final residual = 6.87987e-06, No Iterations 6
smoothSolver:  Solving for Uy, Initial residual = 0.0707785, Final residual = 0.00574555, No Iterations 4
Pressure gradient source: uncorrected Ubar = 1, pressure gradient = 0.0400088
GAMG:  Solving for p, Initial residual = 0.0365044, Final residual = 0.00301978, No Iterations 5
time step continuity errors : sum local = 1.38538e-08, global = 4.98309e-19, cumulative = -2.50404e-17
Pressure gradient source: uncorrected Ubar = 1, pressure gradient = 0.0401377
smoothSolver:  Solving for omega, Initial residual = 8.65999e-06, Final residual = 8.65999e-06, No Iterations 0
smoothSolver:  Solving for k, Initial residual = 0.0101655, Final residual = 0.000865181, No Iterations 5
ExecutionTime = 0.189649 s  ClockTime = 1 s

Time = 83s

smoothSolver:  Solving for Ux, Initial residual = 0.00010127, Final residual = 6.70244e-06, No Iterations 6
smoothSolver:  Solving for Uy, Initial residual = 0.0674956, Final residual = 0.00549031, No Iterations 4
Pressure gradient source: uncorrected Ubar = 1, pressure gradient = 0.0400064
GAMG:  Solving for p, Initial residual = 0.0336398, Final residual = 0.00291932, No Iterations 5
time step continuity errors : sum local = 1.24366e-08, global = 8.88458e-18, cumulative = -1.61559e-17
Pressure gradient source: uncorrected Ubar = 1, pressure gradient = 0.0401314
smoothSolver:  Solving for omega, Initial residual = 8.65996e-06, Final residual = 8.65996e-06, No Iterations 0
smoothSolver:  Solving for k, Initial residual = 0.0101613, Final residual = 0.00087343, No Iterations 5
ExecutionTime = 0.191647 s  ClockTime = 1 s

Time = 84s

smoothSolver:  Solving for Ux, Initial residual = 9.85059e-05, Final residual = 9.9346e-06, No Iterations 5
smoothSolver:  Solving for Uy, Initial residual = 0.0599381, Final residual = 0.00506474, No Iterations 4
Pressure gradient source: uncorrected Ubar = 1, pressure gradient = 0.0399521
GAMG:  Solving for p, Initial residual = 0.0703422, Final residual = 0.00637972, No Iterations 4
time step continuity errors : sum local = 2.86435e-08, global = -5.14339e-18, cumulative = -2.12993e-17
Pressure gradient source: uncorrected Ubar = 1, pressure gradient = 0.0401212
smoothSolver:  Solving for omega, Initial residual = 8.65994e-06, Final residual = 8.65994e-06, No Iterations 0
smoothSolver:  Solving for k, Initial residual = 0.0101622, Final residual = 0.000892971, No Iterations 5
ExecutionTime = 0.193563 s  ClockTime = 1 s

Time = 85s

smoothSolver:  Solving for Ux, Initial residual = 9.59984e-05, Final residual = 9.70831e-06, No Iterations 5
smoothSolver:  Solving for Uy, Initial residual = 0.0554836, Final residual = 0.00327515, No Iterations 5
Pressure gradient source: uncorrected Ubar = 1, pressure gradient = 0.0399673
GAMG:  Solving for p, Initial residual = 0.0560665, Final residual = 0.00442682, No Iterations 5
time step continuity errors : sum local = 2.20827e-08, global = 9.49998e-18, cumulative = -1.17993e-17
Pressure gradient source: uncorrected Ubar = 1, pressure gradient = 0.0401141
smoothSolver:  Solving for omega, Initial residual = 8.65991e-06, Final residual = 8.65991e-06, No Iterations 0
smoothSolver:  Solving for k, Initial residual = 0.0101451, Final residual = 0.000817174, No Iterations 5
ExecutionTime = 0.195845 s  ClockTime = 1 s

Time = 86s

smoothSolver:  Solving for Ux, Initial residual = 9.35138e-05, Final residual = 9.4775e-06, No Iterations 5
smoothSolver:  Solving for Uy, Initial residual = 0.0598314, Final residual = 0.00562553, No Iterations 4
Pressure gradient source: uncorrected Ubar = 1, pressure gradient = 0.0399673
GAMG:  Solving for p, Initial residual = 0.0408543, Final residual = 0.00221034, No Iterations 6
time step continuity errors : sum local = 1.02031e-08, global = -1.69912e-17, cumulative = -2.87905e-17
Pressure gradient source: uncorrected Ubar = 1, pressure gradient = 0.0401075
smoothSolver:  Solving for omega, Initial residual = 8.65987e-06, Final residual = 8.65987e-06, No Iterations 0
smoothSolver:  Solving for k, Initial residual = 0.0101309, Final residual = 0.000782057, No Iterations 5
ExecutionTime = 0.197872 s  ClockTime = 1 s

Time = 87s

smoothSolver:  Solving for Ux, Initial residual = 9.1098e-05, Final residual = 9.24924e-06, No Iterations 5
smoothSolver:  Solving for Uy, Initial residual = 0.0479515, Final residual = 0.0043364, No Iterations 4
Pressure gradient source: uncorrected Ubar = 1, pressure gradient = 0.0399676
GAMG:  Solving for p, Initial residual = 0.026844, Final residual = 0.00226402, No Iterations 5
time step continuity errors : sum local = 1.09303e-08, global = -4.14563e-18, cumulative = -3.29361e-17
Pressure gradient source: uncorrected Ubar = 1, pressure gradient = 0.0401014
smoothSolver:  Solving for omega, Initial residual = 8.65984e-06, Final residual = 8.65984e-06, No Iterations 0
smoothSolver:  Solving for k, Initial residual = 0.0101358, Final residual = 0.00086698, No Iterations 5
ExecutionTime = 0.200614 s  ClockTime = 1 s

Time = 88s

smoothSolver:  Solving for Ux, Initial residual = 8.8737e-05, Final residual = 9.02394e-06, No Iterations 5
smoothSolver:  Solving for Uy, Initial residual = 0.0353509, Final residual = 0.00318657, No Iterations 4
Pressure gradient source: uncorrected Ubar = 1, pressure gradient = 0.0399675
GAMG:  Solving for p, Initial residual = 0.0171001, Final residual = 0.00126818, No Iterations 4
time step continuity errors : sum local = 5.97883e-09, global = -9.66851e-20, cumulative = -3.30328e-17
Pressure gradient source: uncorrected Ubar = 1, pressure gradient = 0.0400957
smoothSolver:  Solving for omega, Initial residual = 8.65981e-06, Final residual = 8.65981e-06, No Iterations 0
smoothSolver:  Solving for k, Initial residual = 0.0101235, Final residual = 0.000816424, No Iterations 5
ExecutionTime = 0.20348 s  ClockTime = 1 s

Time = 89s

smoothSolver:  Solving for Ux, Initial residual = 8.64292e-05, Final residual = 8.8021e-06, No Iterations 5
smoothSolver:  Solving for Uy, Initial residual = 0.0252403, Final residual = 0.00232553, No Iterations 4
Pressure gradient source: uncorrected Ubar = 1, pressure gradient = 0.0399672
GAMG:  Solving for p, Initial residual = 0.0125203, Final residual = 0.000500046, No Iterations 4
time step continuity errors : sum local = 2.28606e-09, global = 1.27867e-17, cumulative = -2.02461e-17
Pressure gradient source: uncorrected Ubar = 1, pressure gradient = 0.0400903
smoothSolver:  Solving for omega, Initial residual = 8.65978e-06, Final residual = 8.65978e-06, No Iterations 0
smoothSolver:  Solving for k, Initial residual = 0.0101324, Final residual = 0.00091716, No Iterations 5
ExecutionTime = 0.205548 s  ClockTime = 1 s

Time = 90s

[...]
Pressure gradient source: uncorrected Ubar = 1, pressure gradient = 0.0399345
GAMG:  Solving for p, Initial residual = 0.0128423, Final residual = 0.000729205, No Iterations 5
time step continuity errors : sum local = 2.69615e-09, global = -5.85292e-18, cumulative = -7.26472e-17
Pressure gradient source: uncorrected Ubar = 1, pressure gradient = 0.0399565
smoothSolver:  Solving for omega, Initial residual = 6.13659e-06, Final residual = 6.13659e-06, No Iterations 0
smoothSolver:  Solving for k, Initial residual = 0.00509893, Final residual = 0.000443477, No Iterations 5
bounding k, min: 2.737e-17 max: 7.33552e-12 average: 3.62659e-12
ExecutionTime = 0.326705 s  ClockTime = 1 s

Time = 147s

smoothSolver:  Solving for Ux, Initial residual = 2.15664e-05, Final residual = 8.36158e-06, No Iterations 2
smoothSolver:  Solving for Uy, Initial residual = 0.00913993, Final residual = 0.000619309, No Iterations 4
Pressure gradient source: uncorrected Ubar = 1, pressure gradient = 0.0399348
GAMG:  Solving for p, Initial residual = 0.013609, Final residual = 0.000863925, No Iterations 5
time step continuity errors : sum local = 3.10968e-09, global = 1.81021e-18, cumulative = -7.08369e-17
Pressure gradient source: uncorrected Ubar = 1, pressure gradient = 0.0399561
smoothSolver:  Solving for omega, Initial residual = 6.2612e-06, Final residual = 6.2612e-06, No Iterations 0
smoothSolver:  Solving for k, Initial residual = 0.00509788, Final residual = 0.000482018, No Iterations 5
bounding k, min: 2.69815e-17 max: 6.78063e-12 average: 3.33884e-12
ExecutionTime = 0.328813 s  ClockTime = 1 s

Time = 148s

smoothSolver:  Solving for Ux, Initial residual = 2.11423e-05, Final residual = 8.20313e-06, No Iterations 2
smoothSolver:  Solving for Uy, Initial residual = 0.0105646, Final residual = 0.000740292, No Iterations 4
Pressure gradient source: uncorrected Ubar = 1, pressure gradient = 0.0399351
GAMG:  Solving for p, Initial residual = 0.0138231, Final residual = 0.00109854, No Iterations 5
time step continuity errors : sum local = 3.58211e-09, global = -4.79026e-18, cumulative = -7.56272e-17
Pressure gradient source: uncorrected Ubar = 1, pressure gradient = 0.0399557
smoothSolver:  Solving for omega, Initial residual = 6.36575e-06, Final residual = 6.36575e-06, No Iterations 0
smoothSolver:  Solving for k, Initial residual = 0.00509963, Final residual = 0.000336059, No Iterations 6
bounding k, min: 2.66212e-17 max: 6.22154e-12 average: 3.05745e-12
ExecutionTime = 0.331094 s  ClockTime = 1 s

Time = 149s

smoothSolver:  Solving for Ux, Initial residual = 2.07252e-05, Final residual = 8.04675e-06, No Iterations 2
smoothSolver:  Solving for Uy, Initial residual = 0.0114972, Final residual = 0.000819051, No Iterations 4
Pressure gradient source: uncorrected Ubar = 1, pressure gradient = 0.0399354
GAMG:  Solving for p, Initial residual = 0.0135631, Final residual = 0.000818928, No Iterations 4
time step continuity errors : sum local = 2.6409e-09, global = 3.92517e-18, cumulative = -7.1702e-17
Pressure gradient source: uncorrected Ubar = 1, pressure gradient = 0.0399554
smoothSolver:  Solving for omega, Initial residual = 6.45577e-06, Final residual = 6.45577e-06, No Iterations 0
smoothSolver:  Solving for k, Initial residual = 0.0050944, Final residual = 0.000328924, No Iterations 6
bounding k, min: 2.62934e-17 max: 5.6656e-12 average: 2.80235e-12
ExecutionTime = 0.333202 s  ClockTime = 1 s

Time = 150s

smoothSolver:  Solving for Ux, Initial residual = 2.03164e-05, Final residual = 7.89267e-06, No Iterations 2
smoothSolver:  Solving for Uy, Initial residual = 0.0122764, Final residual = 0.000907454, No Iterations 4
Pressure gradient source: uncorrected Ubar = 1, pressure gradient = 0.0399357
GAMG:  Solving for p, Initial residual = 0.0132489, Final residual = 0.000679847, No Iterations 4
time step continuity errors : sum local = 2.15099e-09, global = -3.46861e-18, cumulative = -7.51706e-17
Pressure gradient source: uncorrected Ubar = 1, pressure gradient = 0.0399551
smoothSolver:  Solving for omega, Initial residual = 6.5268e-06, Final residual = 6.5268e-06, No Iterations 0
smoothSolver:  Solving for k, Initial residual = 0.00507704, Final residual = 0.000459473, No Iterations 5
bounding k, min: 2.60039e-17 max: 5.22284e-12 average: 2.58607e-12
ExecutionTime = 0.335346 s  ClockTime = 1 s

Time = 151s

smoothSolver:  Solving for Ux, Initial residual = 1.99153e-05, Final residual = 7.74101e-06, No Iterations 2
smoothSolver:  Solving for Uy, Initial residual = 0.0127628, Final residual = 0.000951964, No Iterations 4
Pressure gradient source: uncorrected Ubar = 1, pressure gradient = 0.0399359
GAMG:  Solving for p, Initial residual = 0.0127895, Final residual = 0.000609666, No Iterations 4
time step continuity errors : sum local = 1.84566e-09, global = 8.86743e-19, cumulative = -7.42839e-17
Pressure gradient source: uncorrected Ubar = 1, pressure gradient = 0.0399548
smoothSolver:  Solving for omega, Initial residual = 6.57824e-06, Final residual = 6.57824e-06, No Iterations 0
smoothSolver:  Solving for k, Initial residual = 0.00507019, Final residual = 0.000445391, No Iterations 5
bounding k, min: 2.57433e-17 max: 4.85365e-12 average: 2.38657e-12
ExecutionTime = 0.337442 s  ClockTime = 1 s

Time = 152s

smoothSolver:  Solving for Ux, Initial residual = 1.95219e-05, Final residual = 7.59167e-06, No Iterations 2
smoothSolver:  Solving for Uy, Initial residual = 0.0129845, Final residual = 0.00097339, No Iterations 4
Pressure gradient source: uncorrected Ubar = 1, pressure gradient = 0.0399362
GAMG:  Solving for p, Initial residual = 0.0124483, Final residual = 0.000832392, No Iterations 4
time step continuity errors : sum local = 2.49794e-09, global = 5.87444e-18, cumulative = -6.84095e-17
Pressure gradient source: uncorrected Ubar = 1, pressure gradient = 0.0399545
smoothSolver:  Solving for omega, Initial residual = 6.61619e-06, Final residual = 6.61619e-06, No Iterations 0
smoothSolver:  Solving for k, Initial residual = 0.00507071, Final residual = 0.000487755, No Iterations 5
bounding k, min: 2.55072e-17 max: 4.49702e-12 average: 2.19946e-12
ExecutionTime = 0.339542 s  ClockTime = 1 s

Time = 153s

smoothSolver:  Solving for Ux, Initial residual = 1.91356e-05, Final residual = 7.4447e-06, No Iterations 2
smoothSolver:  Solving for Uy, Initial residual = 0.0130494, Final residual = 0.000998013, No Iterations 4
Pressure gradient source: uncorrected Ubar = 1, pressure gradient = 0.0399364
GAMG:  Solving for p, Initial residual = 0.0121632, Final residual = 0.00117742, No Iterations 4
time step continuity errors : sum local = 3.30014e-09, global = 4.024e-18, cumulative = -6.43855e-17
Pressure gradient source: uncorrected Ubar = 1, pressure gradient = 0.0399543
smoothSolver:  Solving for omega, Initial residual = 6.64365e-06, Final residual = 6.64365e-06, No Iterations 0
smoothSolver:  Solving for k, Initial residual = 0.00507093, Final residual = 0.000492381, No Iterations 5
bounding k, min: 2.5293e-17 max: 4.15578e-12 average: 2.02473e-12
ExecutionTime = 0.341609 s  ClockTime = 1 s

Time = 154s

smoothSolver:  Solving for Ux, Initial residual = 1.87563e-05, Final residual = 7.3001e-06, No Iterations 2
smoothSolver:  Solving for Uy, Initial residual = 0.0130237, Final residual = 0.00100769, No Iterations 4
Pressure gradient source: uncorrected Ubar = 1, pressure gradient = 0.0399367
GAMG:  Solving for p, Initial residual = 0.0118841, Final residual = 0.000962125, No Iterations 5
time step continuity errors : sum local = 2.64717e-09, global = -7.89263e-19, cumulative = -6.51747e-17
Pressure gradient source: uncorrected Ubar = 1, pressure gradient = 0.039954
smoothSolver:  Solving for omega, Initial residual = 6.66329e-06, Final residual = 6.66329e-06, No Iterations 0
smoothSolver:  Solving for k, Initial residual = 0.00507059, Final residual = 0.000499548, No Iterations 5
bounding k, min: 2.50981e-17 max: 3.80751e-12 average: 1.86399e-12
ExecutionTime = 0.343611 s  ClockTime = 1 s

Time = 155s

smoothSolver:  Solving for Ux, Initial residual = 1.83839e-05, Final residual = 7.15791e-06, No Iterations 2
smoothSolver:  Solving for Uy, Initial residual = 0.0130698, Final residual = 0.00103788, No Iterations 4
Pressure gradient source: uncorrected Ubar = 1, pressure gradient = 0.0399369
GAMG:  Solving for p, Initial residual = 0.0115301, Final residual = 0.000763793, No Iterations 5
time step continuity errors : sum local = 2.20578e-09, global = 5.84051e-18, cumulative = -5.93342e-17
Pressure gradient source: uncorrected Ubar = 1, pressure gradient = 0.0399538
smoothSolver:  Solving for omega, Initial residual = 6.67724e-06, Final residual = 6.67724e-06, No Iterations 0
smoothSolver:  Solving for k, Initial residual = 0.00504741, Final residual = 0.000418138, No Iterations 5
bounding k, min: 2.49206e-17 max: 3.55056e-12 average: 1.7246e-12
ExecutionTime = 0.345688 s  ClockTime = 1 s

Time = 156s

smoothSolver:  Solving for Ux, Initial residual = 1.80184e-05, Final residual = 7.01814e-06, No Iterations 2
smoothSolver:  Solving for Uy, Initial residual = 0.0130951, Final residual = 0.00106669, No Iterations 4
Pressure gradient source: uncorrected Ubar = 1, pressure gradient = 0.0399371
GAMG:  Solving for p, Initial residual = 0.0114602, Final residual = 0.000794766, No Iterations 5
time step continuity errors : sum local = 2.25426e-09, global = 7.72077e-18, cumulative = -5.16134e-17
Pressure gradient source: uncorrected Ubar = 1, pressure gradient = 0.0399536
smoothSolver:  Solving for omega, Initial residual = 6.68713e-06, Final residual = 6.68713e-06, No Iterations 0
smoothSolver:  Solving for k, Initial residual = 0.00507107, Final residual = 0.00033301, No Iterations 6
bounding k, min: 2.47545e-17 max: 3.24514e-12 average: 1.57897e-12
ExecutionTime = 0.347866 s  ClockTime = 1 s

Time = 157s

smoothSolver:  Solving for Ux, Initial residual = 1.76598e-05, Final residual = 6.88078e-06, No Iterations 2
smoothSolver:  Solving for Uy, Initial residual = 0.0128732, Final residual = 0.00108542, No Iterations 4
Pressure gradient source: uncorrected Ubar = 1, pressure gradient = 0.0399373
GAMG:  Solving for p, Initial residual = 0.0113485, Final residual = 0.00082607, No Iterations 5
time step continuity errors : sum local = 2.30265e-09, global = 1.20317e-18, cumulative = -5.04103e-17
Pressure gradient source: uncorrected Ubar = 1, pressure gradient = 0.0399534
smoothSolver:  Solving for omega, Initial residual = 6.6944e-06, Final residual = 6.6944e-06, No Iterations 0
smoothSolver:  Solving for k, Initial residual = 0.0050688, Final residual = 0.000501846, No Iterations 5
bounding k, min: 2.46062e-17 max: 2.99246e-12 average: 1.4527e-12
ExecutionTime = 0.349989 s  ClockTime = 1 s

Time = 158s

smoothSolver:  Solving for Ux, Initial residual = 1.7308e-05, Final residual = 6.74584e-06, No Iterations 2
smoothSolver:  Solving for Uy, Initial residual = 0.0126798, Final residual = 0.00109455, No Iterations 4
Pressure gradient source: uncorrected Ubar = 1, pressure gradient = 0.0399376
GAMG:  Solving for p, Initial residual = 0.0112565, Final residual = 0.00099049, No Iterations 5
time step continuity errors : sum local = 2.62429e-09, global = 1.34189e-18, cumulative = -4.90684e-17
Pressure gradient source: uncorrected Ubar = 1, pressure gradient = 0.0399532
smoothSolver:  Solving for omega, Initial residual = 6.69932e-06, Final residual = 6.69932e-06, No Iterations 0
smoothSolver:  Solving for k, Initial residual = 0.00506549, Final residual = 0.000478496, No Iterations 5
bounding k, min: 2.44714e-17 max: 2.76203e-12 average: 1.33817e-12
ExecutionTime = 0.352153 s  ClockTime = 1 s

Time = 159s

smoothSolver:  Solving for Ux, Initial residual = 1.69628e-05, Final residual = 6.61329e-06, No Iterations 2
smoothSolver:  Solving for Uy, Initial residual = 0.012482, Final residual = 0.00110877, No Iterations 4
Pressure gradient source: uncorrected Ubar = 1, pressure gradient = 0.0399378
GAMG:  Solving for p, Initial residual = 0.0111977, Final residual = 0.000952645, No Iterations 5
time step continuity errors : sum local = 2.48264e-09, global = -5.38042e-18, cumulative = -5.44488e-17
Pressure gradient source: uncorrected Ubar = 1, pressure gradient = 0.039953
smoothSolver:  Solving for omega, Initial residual = 6.7028e-06, Final residual = 6.7028e-06, No Iterations 0
smoothSolver:  Solving for k, Initial residual = 0.00506928, Final residual = 0.000491489, No Iterations 5
bounding k, min: 2.43486e-17 max: 2.53882e-12 average: 1.23271e-12
ExecutionTime = 0.354274 s  ClockTime = 1 s

Time = 160s

smoothSolver:  Solving for Ux, Initial residual = 1.66243e-05, Final residual = 6.48313e-06, No Iterations 2
smoothSolver:  Solving for Uy, Initial residual = 0.0123919, Final residual = 0.00111494, No Iterations 4
Pressure gradient source: uncorrected Ubar = 1, pressure gradient = 0.039938
GAMG:  Solving for p, Initial residual = 0.0111558, Final residual = 0.000990977, No Iterations 5
time step continuity errors : sum local = 2.51093e-09, global = -4.63603e-18, cumulative = -5.90848e-17
Pressure gradient source: uncorrected Ubar = 1, pressure gradient = 0.0399529
smoothSolver:  Solving for omega, Initial residual = 6.70527e-06, Final residual = 6.70527e-06, No Iterations 0
smoothSolver:  Solving for k, Initial residual = 0.00505577, Final residual = 0.000431266, No Iterations 5
bounding k, min: 2.42364e-17 max: 2.3454e-12 average: 1.13957e-12
ExecutionTime = 0.356355 s  ClockTime = 1 s

Time = 161s

smoothSolver:  Solving for Ux, Initial residual = 1.62922e-05, Final residual = 9.87961e-06, No Iterations 1
smoothSolver:  Solving for Uy, Initial residual = 0.012308, Final residual = 0.00111984, No Iterations 4
Pressure gradient source: uncorrected Ubar = 1, pressure gradient = 0.0399276
GAMG:  Solving for p, Initial residual = 0.01972, Final residual = 0.00163687, No Iterations 5
time step continuity errors : sum local = 4.11917e-09, global = -2.73906e-18, cumulative = -6.18239e-17
Pressure gradient source: uncorrected Ubar = 1, pressure gradient = 0.0399459
smoothSolver:  Solving for omega, Initial residual = 6.70704e-06, Final residual = 6.70704e-06, No Iterations 0
smoothSolver:  Solving for k, Initial residual = 0.00506424, Final residual = 0.000452148, No Iterations 5
bounding k, min: 2.41338e-17 max: 2.15655e-12 average: 1.05109e-12
ExecutionTime = 0.358401 s  ClockTime = 1 s

Time = 162s

smoothSolver:  Solving for Ux, Initial residual = 1.61432e-05, Final residual = 9.83949e-06, No Iterations 1
smoothSolver:  Solving for Uy, Initial residual = 0.0153862, Final residual = 0.00114743, No Iterations 4
Pressure gradient source: uncorrected Ubar = 1, pressure gradient = 0.0399377
GAMG:  Solving for p, Initial residual = 0.018433, Final residual = 0.0008534, No Iterations 7
time step continuity errors : sum local = 2.20729e-09, global = -1.16157e-18, cumulative = -6.29855e-17
Pressure gradient source: uncorrected Ubar = 1, pressure gradient = 0.0399444
smoothSolver:  Solving for omega, Initial residual = 6.70829e-06, Final residual = 6.70829e-06, No Iterations 0
smoothSolver:  Solving for k, Initial residual = 0.00507157, Final residual = 0.000486925, No Iterations 5
bounding k, min: 2.404e-17 max: 1.99638e-12 average: 9.68444e-13
ExecutionTime = 0.360564 s  ClockTime = 1 s

Time = 163s

smoothSolver:  Solving for Ux, Initial residual = 1.5944e-05, Final residual = 9.74565e-06, No Iterations 1
smoothSolver:  Solving for Uy, Initial residual = 0.0187633, Final residual = 0.00128266, No Iterations 4
Pressure gradient source: uncorrected Ubar = 1, pressure gradient = 0.0399383
GAMG:  Solving for p, Initial residual = 0.0193157, Final residual = 0.00175914, No Iterations 6
time step continuity errors : sum local = 4.40034e-09, global = -5.6663e-18, cumulative = -6.86518e-17
Pressure gradient source: uncorrected Ubar = 1, pressure gradient = 0.0399435
smoothSolver:  Solving for omega, Initial residual = 6.70918e-06, Final residual = 6.70918e-06, No Iterations 0
smoothSolver:  Solving for k, Initial residual = 0.00508528, Final residual = 0.000333184, No Iterations 6
bounding k, min: 2.39519e-17 max: 1.83126e-12 average: 8.86821e-13
ExecutionTime = 0.362699 s  ClockTime = 1 s

Time = 164s

smoothSolver:  Solving for Ux, Initial residual = 1.57409e-05, Final residual = 9.64128e-06, No Iterations 1
smoothSolver:  Solving for Uy, Initial residual = 0.0186775, Final residual = 0.0012875, No Iterations 4
Pressure gradient source: uncorrected Ubar = 1, pressure gradient = 0.0399386
GAMG:  Solving for p, Initial residual = 0.0187071, Final residual = 0.00129933, No Iterations 6
time step continuity errors : sum local = 3.5316e-09, global = -1.73146e-18, cumulative = -7.03832e-17
Pressure gradient source: uncorrected Ubar = 1, pressure gradient = 0.0399428
smoothSolver:  Solving for omega, Initial residual = 6.70984e-06, Final residual = 6.70984e-06, No Iterations 0
smoothSolver:  Solving for k, Initial residual = 0.00508409, Final residual = 0.000475147, No Iterations 5
bounding k, min: 2.38728e-17 max: 1.67251e-12 average: 8.17341e-13
ExecutionTime = 0.364829 s  ClockTime = 1 s

Time = 165s

smoothSolver:  Solving for Ux, Initial residual = 1.55371e-05, Final residual = 9.53155e-06, No Iterations 1
smoothSolver:  Solving for Uy, Initial residual = 0.0160056, Final residual = 0.0010574, No Iterations 4
Pressure gradient source: uncorrected Ubar = 1, pressure gradient = 0.0399387
GAMG:  Solving for p, Initial residual = 0.0152549, Final residual = 0.00139089, No Iterations 5
time step continuity errors : sum local = 3.60444e-09, global = -2.25509e-18, cumulative = -7.26383e-17
Pressure gradient source: uncorrected Ubar = 1, pressure gradient = 0.0399424
smoothSolver:  Solving for omega, Initial residual = 6.71029e-06, Final residual = 6.71029e-06, No Iterations 0
smoothSolver:  Solving for k, Initial residual = 0.00508536, Final residual = 0.00045828, No Iterations 5
bounding k, min: 2.38008e-17 max: 1.54977e-12 average: 7.54265e-13
ExecutionTime = 0.367099 s  ClockTime = 1 s

Time = 166s

smoothSolver:  Solving for Ux, Initial residual = 1.53336e-05, Final residual = 9.41888e-06, No Iterations 1
smoothSolver:  Solving for Uy, Initial residual = 0.0127684, Final residual = 0.000818852, No Iterations 4
Pressure gradient source: uncorrected Ubar = 1, pressure gradient = 0.0399388
GAMG:  Solving for p, Initial residual = 0.0115584, Final residual = 0.00111422, No Iterations 4
time step continuity errors : sum local = 3.02587e-09, global = 3.58604e-19, cumulative = -7.22797e-17
Pressure gradient source: uncorrected Ubar = 1, pressure gradient = 0.0399421
smoothSolver:  Solving for omega, Initial residual = 6.71061e-06, Final residual = 6.71061e-06, No Iterations 0
smoothSolver:  Solving for k, Initial residual = 0.00509448, Final residual = 0.000482745, No Iterations 5
bounding k, min: 2.37352e-17 max: 1.42401e-12 average: 6.95461e-13
ExecutionTime = 0.369192 s  ClockTime = 1 s

Time = 167s

smoothSolver:  Solving for Ux, Initial residual = 1.51312e-05, Final residual = 9.30452e-06, No Iterations 1
smoothSolver:  Solving for Uy, Initial residual = 0.00932243, Final residual = 0.000585552, No Iterations 4
Pressure gradient source: uncorrected Ubar = 1, pressure gradient = 0.0399389
GAMG:  Solving for p, Initial residual = 0.00842785, Final residual = 0.000609007, No Iterations 3
time step continuity errors : sum local = 1.67018e-09, global = -1.31773e-19, cumulative = -7.24115e-17
Pressure gradient source: uncorrected Ubar = 1, pressure gradient = 0.0399418
smoothSolver:  Solving for omega, Initial residual = 6.71084e-06, Final residual = 6.71084e-06, No Iterations 0
smoothSolver:  Solving for k, Initial residual = 0.00509984, Final residual = 0.00046164, No Iterations 5
bounding k, min: 2.36823e-17 max: 1.32011e-12 average: 6.41001e-13
ExecutionTime = 0.371225 s  ClockTime = 1 s


SIMPLE solution converged in 167 iterations

End

