/*---------------------------------------------------------------------------*\
  =========                 |
  \\      /  F ield         | OpenFOAM: The Open Source CFD Toolbox
   \\    /   O peration     | Website:  https://openfoam.org
    \\  /    A nd           | Version:  10
     \\/     M anipulation  |
\*---------------------------------------------------------------------------*/
Build  : 10-e450dce21ea5
Exec   : blockMesh
Date   : Feb 20 2023
Time   : 14:19:35
Host   : "w530-R9YK46P"
PID    : 19168
I/O    : uncollated
Case   : /home/jdmezazeron/gitDanielMezaZ/turbulenceVisualized/Data/SimulationFiles/K43_Re12982
nProcs : 1
sigFpe : Enabling floating point exception trapping (FOAM_SIGFPE).
fileModificationChecking : Monitoring run-time modified files using timeStampMaster (fileModificationSkew 10)
allowSystemOperations : Allowing user-supplied system call operations

// * * * * * * * * * * * * * * * * * * * * * * * * * * * * * * * * * * * * * //
Create time

Deleting polyMesh directory
    "/home/jdmezazeron/gitDanielMezaZ/turbulenceVisualized/Data/SimulationFiles/K43_Re12982/constant/polyMesh"
Reading "blockMeshDict"

Creating block mesh from
    "system/blockMeshDict"
Creating block edges
No non-planar block faces defined
Creating topology blocks
Creating topology patches

Creating block mesh topology

Check topology

	Basic statistics
		Number of internal faces : 0
		Number of boundary faces : 6
		Number of defined boundary faces : 6
		Number of undefined boundary faces : 0
	Checking patch -> block consistency

Creating block offsets
Creating merge list .

Creating polyMesh from blockMesh
Creating patches
Creating cells
Creating points with scale 1
    Block 0 cell size :
        i : 0.5
        j : 0.00461374 .. 0.018455
        k : 2

Detected cyclic patches; ordering boundary faces

Writing polyMesh
----------------
Mesh Information
----------------
  boundingBox: (-1 0 -1) (1 1 1)
  nPoints: 1010
  nCells: 400
  nFaces: 1704
  nInternalFaces: 696
----------------
Patches
----------------
  patch 0 (start: 696 size: 100) name: inlet
  patch 1 (start: 796 size: 100) name: outlet
  patch 2 (start: 896 size: 4) name: fixedWalls-bottom
  patch 3 (start: 900 size: 4) name: fixedWalls-top
  patch 4 (start: 904 size: 800) name: frontAndBack

End

/*---------------------------------------------------------------------------*\
  =========                 |
  \\      /  F ield         | OpenFOAM: The Open Source CFD Toolbox
   \\    /   O peration     | Website:  https://openfoam.org
    \\  /    A nd           | Version:  10
     \\/     M anipulation  |
\*---------------------------------------------------------------------------*/
Build  : 10-e450dce21ea5
Exec   : simpleFoam
Date   : Feb 20 2023
Time   : 14:19:35
Host   : "w530-R9YK46P"
PID    : 19169
I/O    : uncollated
Case   : /home/jdmezazeron/gitDanielMezaZ/turbulenceVisualized/Data/SimulationFiles/K43_Re12982
nProcs : 1
sigFpe : Enabling floating point exception trapping (FOAM_SIGFPE).
fileModificationChecking : Monitoring run-time modified files using timeStampMaster (fileModificationSkew 10)
allowSystemOperations : Allowing user-supplied system call operations

// * * * * * * * * * * * * * * * * * * * * * * * * * * * * * * * * * * * * * //
Create time

Create mesh for time = 0


SIMPLE: Convergence criteria found
        U: tolerance 0.0001
        p: tolerance 0.01
        omega: tolerance 0.0001

Reading field p

Reading field U

Reading/calculating face flux field phi

Selecting viscosity model Newtonian
Selecting turbulence model type RAS
Selecting RAS turbulence model kOmegaSST
Selecting patchDistMethod meshWave
RAS
{
    RASModel        kOmegaSST;
    turbulence      on;
    printCoeffs     on;
    alphaK1         0.85;
    alphaK2         1;
    alphaOmega1     0.5;
    alphaOmega2     0.856;
    gamma1          0.555556;
    gamma2          0.44;
    beta1           0.075;
    beta2           0.0828;
    betaStar        0.09;
    a1              0.31;
    b1              1;
    c1              10;
    F3              false;
}

No MRF models present

--> FOAM Warning : Creating fvModels from "system/fvOptions" rather than constant/fvModels
No fvModels present
--> FOAM Warning : Creating fvConstraints from "system/fvOptions"

Selecting finite volume constraint type meanVelocityForce
    Name: momentumSource
    - selecting all cells
    - selected 400 cell(s) with volume 4
    Initial pressure gradient = 0


Starting time loop

turbulenceFields stressComponents: storing fields:
    R

Time = 1s

smoothSolver:  Solving for Ux, Initial residual = 0, Final residual = 0, No Iterations 0
smoothSolver:  Solving for Uy, Initial residual = 0, Final residual = 0, No Iterations 0
Pressure gradient source: uncorrected Ubar = 0, pressure gradient = 990.945
GAMG:  Solving for p, Initial residual = 0.999996, Final residual = 0.055058, No Iterations 3
time step continuity errors : sum local = 9.88144e-17, global = -9.4815e-18, cumulative = -9.4815e-18
Pressure gradient source: uncorrected Ubar = 0.884654, pressure gradient = 114.302
smoothSolver:  Solving for omega, Initial residual = 0.271119, Final residual = 0.0163803, No Iterations 3
smoothSolver:  Solving for k, Initial residual = 1, Final residual = 0.0900312, No Iterations 5
ExecutionTime = 0.014049 s  ClockTime = 0 s

Time = 2s

smoothSolver:  Solving for Ux, Initial residual = 0.994503, Final residual = 0.0679992, No Iterations 7
smoothSolver:  Solving for Uy, Initial residual = 1, Final residual = 0.0871017, No Iterations 5
Pressure gradient source: uncorrected Ubar = 82.3784, pressure gradient = -881.672
GAMG:  Solving for p, Initial residual = 1, Final residual = 0.0905995, No Iterations 15
time step continuity errors : sum local = 0.0466015, global = -2.55872e-17, cumulative = -3.50687e-17
Pressure gradient source: uncorrected Ubar = 11.2702, pressure gradient = -11.393
smoothSolver:  Solving for omega, Initial residual = 0.344567, Final residual = 0.0303826, No Iterations 1
smoothSolver:  Solving for k, Initial residual = 0.866374, Final residual = 0.0255601, No Iterations 1
ExecutionTime = 0.017226 s  ClockTime = 0 s

Time = 3s

smoothSolver:  Solving for Ux, Initial residual = 0.213968, Final residual = 0.0171902, No Iterations 6
smoothSolver:  Solving for Uy, Initial residual = 0.667309, Final residual = 0.0175042, No Iterations 2
Pressure gradient source: uncorrected Ubar = -1.61509, pressure gradient = 86.1085
GAMG:  Solving for p, Initial residual = 0.187209, Final residual = 0.017834, No Iterations 7
time step continuity errors : sum local = 0.0246221, global = -1.40946e-17, cumulative = -4.91633e-17
Pressure gradient source: uncorrected Ubar = 0.686281, pressure gradient = 0.303749
smoothSolver:  Solving for omega, Initial residual = 0.568053, Final residual = 0.0101982, No Iterations 1
smoothSolver:  Solving for k, Initial residual = 0.175945, Final residual = 0.00484488, No Iterations 2
ExecutionTime = 0.019868 s  ClockTime = 0 s

Time = 4s

smoothSolver:  Solving for Ux, Initial residual = 0.0509411, Final residual = 0.00387821, No Iterations 4
smoothSolver:  Solving for Uy, Initial residual = 0.417503, Final residual = 0.0328701, No Iterations 2
Pressure gradient source: uncorrected Ubar = 0.898242, pressure gradient = 2.30485
GAMG:  Solving for p, Initial residual = 0.128831, Final residual = 0.0122239, No Iterations 7
time step continuity errors : sum local = 0.0364625, global = 1.7766e-16, cumulative = 1.28497e-16
Pressure gradient source: uncorrected Ubar = 0.985679, pressure gradient = 0.585371
smoothSolver:  Solving for omega, Initial residual = 0.126325, Final residual = 0.0119633, No Iterations 1
bounding omega, min: -1.7069 max: 2316.57 average: 111.53
smoothSolver:  Solving for k, Initial residual = 0.424425, Final residual = 0.0352155, No Iterations 2
ExecutionTime = 0.022577 s  ClockTime = 0 s

Time = 5s

smoothSolver:  Solving for Ux, Initial residual = 0.0584679, Final residual = 0.00364565, No Iterations 5
smoothSolver:  Solving for Uy, Initial residual = 0.668455, Final residual = 0.0377784, No Iterations 2
Pressure gradient source: uncorrected Ubar = 0.831634, pressure gradient = 4.24155
GAMG:  Solving for p, Initial residual = 0.127659, Final residual = 0.00979505, No Iterations 10
time step continuity errors : sum local = 0.0297301, global = 1.3043e-16, cumulative = 2.58926e-16
Pressure gradient source: uncorrected Ubar = 0.980155, pressure gradient = 1.01632
smoothSolver:  Solving for omega, Initial residual = 0.183248, Final residual = 0.00429276, No Iterations 2
smoothSolver:  Solving for k, Initial residual = 0.746647, Final residual = 0.00777264, No Iterations 2
ExecutionTime = 0.025324 s  ClockTime = 0 s

Time = 6s

smoothSolver:  Solving for Ux, Initial residual = 0.0792233, Final residual = 0.00528768, No Iterations 5
smoothSolver:  Solving for Uy, Initial residual = 0.619349, Final residual = 0.049964, No Iterations 2
Pressure gradient source: uncorrected Ubar = 0.919086, pressure gradient = 3.12321
GAMG:  Solving for p, Initial residual = 0.244888, Final residual = 0.0218178, No Iterations 13
time step continuity errors : sum local = 0.05295, global = -9.25739e-17, cumulative = 1.66352e-16
Pressure gradient source: uncorrected Ubar = 0.988702, pressure gradient = 1.31052
smoothSolver:  Solving for omega, Initial residual = 0.318086, Final residual = 0.0122654, No Iterations 2
bounding omega, min: -24.9406 max: 2756.15 average: 155.318
smoothSolver:  Solving for k, Initial residual = 0.61007, Final residual = 0.037465, No Iterations 1
ExecutionTime = 0.028309 s  ClockTime = 0 s

Time = 7s

smoothSolver:  Solving for Ux, Initial residual = 0.0963265, Final residual = 0.00755274, No Iterations 4
smoothSolver:  Solving for Uy, Initial residual = 0.565643, Final residual = 0.0465295, No Iterations 2
Pressure gradient source: uncorrected Ubar = 0.981046, pressure gradient = 1.96088
GAMG:  Solving for p, Initial residual = 0.363333, Final residual = 0.0322729, No Iterations 10
time step continuity errors : sum local = 0.0867855, global = 6.87045e-17, cumulative = 2.35057e-16
Pressure gradient source: uncorrected Ubar = 0.996601, pressure gradient = 1.42715
smoothSolver:  Solving for omega, Initial residual = 0.335477, Final residual = 0.00817118, No Iterations 2
smoothSolver:  Solving for k, Initial residual = 0.471255, Final residual = 0.0439404, No Iterations 1
ExecutionTime = 0.031077 s  ClockTime = 0 s

Time = 8s

smoothSolver:  Solving for Ux, Initial residual = 0.105509, Final residual = 0.00815508, No Iterations 4
smoothSolver:  Solving for Uy, Initial residual = 0.575644, Final residual = 0.0496052, No Iterations 2
Pressure gradient source: uncorrected Ubar = 0.821264, pressure gradient = 8.80241
GAMG:  Solving for p, Initial residual = 0.322822, Final residual = 0.0291098, No Iterations 11
time step continuity errors : sum local = 0.112317, global = -5.72459e-17, cumulative = 1.77811e-16
Pressure gradient source: uncorrected Ubar = 0.978291, pressure gradient = 2.32293
smoothSolver:  Solving for omega, Initial residual = 0.294025, Final residual = 0.00314577, No Iterations 2
smoothSolver:  Solving for k, Initial residual = 0.290961, Final residual = 0.00229255, No Iterations 2
ExecutionTime = 0.033876 s  ClockTime = 0 s

Time = 9s

smoothSolver:  Solving for Ux, Initial residual = 0.140985, Final residual = 0.00776602, No Iterations 4
smoothSolver:  Solving for Uy, Initial residual = 0.606632, Final residual = 0.0495462, No Iterations 2
Pressure gradient source: uncorrected Ubar = 0.927288, pressure gradient = 5.88529
GAMG:  Solving for p, Initial residual = 0.38107, Final residual = 0.032699, No Iterations 9
time step continuity errors : sum local = 0.124958, global = 1.16552e-17, cumulative = 1.89466e-16
Pressure gradient source: uncorrected Ubar = 0.989734, pressure gradient = 2.82589
smoothSolver:  Solving for omega, Initial residual = 0.338213, Final residual = 0.00592643, No Iterations 2
smoothSolver:  Solving for k, Initial residual = 0.257067, Final residual = 0.00793044, No Iterations 2
ExecutionTime = 0.036633 s  ClockTime = 0 s

Time = 10s

smoothSolver:  Solving for Ux, Initial residual = 0.109108, Final residual = 0.00949974, No Iterations 3
smoothSolver:  Solving for Uy, Initial residual = 0.617485, Final residual = 0.0545933, No Iterations 2
Pressure gradient source: uncorrected Ubar = 0.838618, pressure gradient = 11.6716
GAMG:  Solving for p, Initial residual = 0.204213, Final residual = 0.0188792, No Iterations 10
time step continuity errors : sum local = 0.140028, global = -8.0231e-17, cumulative = 1.09235e-16
Pressure gradient source: uncorrected Ubar = 0.96541, pressure gradient = 4.72184
smoothSolver:  Solving for omega, Initial residual = 0.234136, Final residual = 0.00646739, No Iterations 2
bounding omega, min: -4.42511 max: 2316.57 average: 151.965
smoothSolver:  Solving for k, Initial residual = 0.213105, Final residual = 0.0125724, No Iterations 2
ExecutionTime = 0.039489 s  ClockTime = 0 s

Time = 11s

smoothSolver:  Solving for Ux, Initial residual = 0.0737668, Final residual = 0.00502911, No Iterations 4
smoothSolver:  Solving for Uy, Initial residual = 0.593383, Final residual = 0.0222855, No Iterations 3
Pressure gradient source: uncorrected Ubar = 0.938171, pressure gradient = 8.66488
GAMG:  Solving for p, Initial residual = 0.21505, Final residual = 0.0207052, No Iterations 8
time step continuity errors : sum local = 0.142644, global = -4.74338e-20, cumulative = 1.09188e-16
Pressure gradient source: uncorrected Ubar = 0.992619, pressure gradient = 5.19259
smoothSolver:  Solving for omega, Initial residual = 0.233792, Final residual = 0.0116067, No Iterations 2
smoothSolver:  Solving for k, Initial residual = 0.173552, Final residual = 0.016114, No Iterations 2
ExecutionTime = 0.042139 s  ClockTime = 0 s

Time = 12s

smoothSolver:  Solving for Ux, Initial residual = 0.0445235, Final residual = 0.00312892, No Iterations 4
smoothSolver:  Solving for Uy, Initial residual = 0.544017, Final residual = 0.021371, No Iterations 3
Pressure gradient source: uncorrected Ubar = 0.891951, pressure gradient = 12.5428
GAMG:  Solving for p, Initial residual = 0.344521, Final residual = 0.0337273, No Iterations 8
time step continuity errors : sum local = 0.112602, global = -1.01488e-16, cumulative = 7.69972e-18
Pressure gradient source: uncorrected Ubar = 0.987463, pressure gradient = 6.04545
smoothSolver:  Solving for omega, Initial residual = 0.190497, Final residual = 0.0111515, No Iterations 2
smoothSolver:  Solving for k, Initial residual = 0.165926, Final residual = 0.00813196, No Iterations 3
ExecutionTime = 0.044829 s  ClockTime = 0 s

Time = 13s

smoothSolver:  Solving for Ux, Initial residual = 0.0293716, Final residual = 0.00234654, No Iterations 4
smoothSolver:  Solving for Uy, Initial residual = 0.530097, Final residual = 0.0253314, No Iterations 3
Pressure gradient source: uncorrected Ubar = 0.955402, pressure gradient = 9.46614
GAMG:  Solving for p, Initial residual = 0.191762, Final residual = 0.0157304, No Iterations 10
time step continuity errors : sum local = 0.084337, global = -9.10052e-18, cumulative = -1.40081e-18
Pressure gradient source: uncorrected Ubar = 0.994489, pressure gradient = 6.46812
smoothSolver:  Solving for omega, Initial residual = 0.173883, Final residual = 0.0137285, No Iterations 2
smoothSolver:  Solving for k, Initial residual = 0.108196, Final residual = 0.00794488, No Iterations 3
ExecutionTime = 0.047614 s  ClockTime = 0 s

Time = 14s

smoothSolver:  Solving for Ux, Initial residual = 0.0234402, Final residual = 0.00191664, No Iterations 4
smoothSolver:  Solving for Uy, Initial residual = 0.433714, Final residual = 0.0235062, No Iterations 3
Pressure gradient source: uncorrected Ubar = 0.931088, pressure gradient = 12.6137
GAMG:  Solving for p, Initial residual = 0.133639, Final residual = 0.0129937, No Iterations 10
time step continuity errors : sum local = 0.12609, global = -3.99054e-17, cumulative = -4.13062e-17
Pressure gradient source: uncorrected Ubar = 0.991558, pressure gradient = 7.221
smoothSolver:  Solving for omega, Initial residual = 0.173743, Final residual = 0.0145042, No Iterations 2
smoothSolver:  Solving for k, Initial residual = 0.0827492, Final residual = 0.00761369, No Iterations 3
ExecutionTime = 0.050451 s  ClockTime = 0 s

Time = 15s

smoothSolver:  Solving for Ux, Initial residual = 0.0202303, Final residual = 0.00163112, No Iterations 4
smoothSolver:  Solving for Uy, Initial residual = 0.444582, Final residual = 0.021951, No Iterations 3
Pressure gradient source: uncorrected Ubar = 0.914601, pressure gradient = 16.8494
GAMG:  Solving for p, Initial residual = 0.338925, Final residual = 0.0314789, No Iterations 8
time step continuity errors : sum local = 0.161475, global = -2.16732e-16, cumulative = -2.58038e-16
Pressure gradient source: uncorrected Ubar = 0.992253, pressure gradient = 8.09446
smoothSolver:  Solving for omega, Initial residual = 0.148351, Final residual = 0.0143092, No Iterations 2
smoothSolver:  Solving for k, Initial residual = 0.0713915, Final residual = 0.00409451, No Iterations 4
ExecutionTime = 0.053136 s  ClockTime = 0 s

Time = 16s

smoothSolver:  Solving for Ux, Initial residual = 0.0182581, Final residual = 0.00149839, No Iterations 4
smoothSolver:  Solving for Uy, Initial residual = 0.406535, Final residual = 0.0184105, No Iterations 3
Pressure gradient source: uncorrected Ubar = 0.955213, pressure gradient = 13.9134
GAMG:  Solving for p, Initial residual = 0.126758, Final residual = 0.01258, No Iterations 11
time step continuity errors : sum local = 0.1552, global = -9.07477e-17, cumulative = -3.48786e-16
Pressure gradient source: uncorrected Ubar = 0.99456, pressure gradient = 8.80121
smoothSolver:  Solving for omega, Initial residual = 0.129694, Final residual = 0.00666924, No Iterations 3
smoothSolver:  Solving for k, Initial residual = 0.0648943, Final residual = 0.00430984, No Iterations 4
ExecutionTime = 0.056006 s  ClockTime = 0 s

Time = 17s

smoothSolver:  Solving for Ux, Initial residual = 0.0156381, Final residual = 0.00144376, No Iterations 4
smoothSolver:  Solving for Uy, Initial residual = 0.31984, Final residual = 0.0205792, No Iterations 3
Pressure gradient source: uncorrected Ubar = 0.98864, pressure gradient = 10.3887
GAMG:  Solving for p, Initial residual = 0.0440933, Final residual = 0.00384929, No Iterations 10
time step continuity errors : sum local = 0.169228, global = 1.48807e-17, cumulative = -3.33905e-16
Pressure gradient source: uncorrected Ubar = 0.996403, pressure gradient = 9.30383
smoothSolver:  Solving for omega, Initial residual = 0.107582, Final residual = 0.00711933, No Iterations 3
smoothSolver:  Solving for k, Initial residual = 0.0605291, Final residual = 0.00466939, No Iterations 4
ExecutionTime = 0.058837 s  ClockTime = 0 s

Time = 18s

smoothSolver:  Solving for Ux, Initial residual = 0.0142657, Final residual = 0.00141211, No Iterations 4
smoothSolver:  Solving for Uy, Initial residual = 0.363361, Final residual = 0.0206689, No Iterations 3
Pressure gradient source: uncorrected Ubar = 1.00842, pressure gradient = 7.89936
GAMG:  Solving for p, Initial residual = 0.0940709, Final residual = 0.00676859, No Iterations 9
time step continuity errors : sum local = 0.15697, global = -3.96801e-17, cumulative = -3.73585e-16
Pressure gradient source: uncorrected Ubar = 1.00003, pressure gradient = 9.29869
smoothSolver:  Solving for omega, Initial residual = 0.0935337, Final residual = 0.00732888, No Iterations 3
smoothSolver:  Solving for k, Initial residual = 0.0569081, Final residual = 0.00532996, No Iterations 4
ExecutionTime = 0.061561 s  ClockTime = 0 s

Time = 19s

smoothSolver:  Solving for Ux, Initial residual = 0.0129799, Final residual = 0.000880961, No Iterations 5
smoothSolver:  Solving for Uy, Initial residual = 0.284444, Final residual = 0.0188127, No Iterations 3
Pressure gradient source: uncorrected Ubar = 1.00426, pressure gradient = 8.49599
GAMG:  Solving for p, Initial residual = 0.118904, Final residual = 0.00910499, No Iterations 8
time step continuity errors : sum local = 0.152054, global = 1.89735e-17, cumulative = -3.54612e-16
Pressure gradient source: uncorrected Ubar = 0.993281, pressure gradient = 10.5636
smoothSolver:  Solving for omega, Initial residual = 0.0778538, Final residual = 0.00448608, No Iterations 4
smoothSolver:  Solving for k, Initial residual = 0.0533212, Final residual = 0.00333905, No Iterations 5
ExecutionTime = 0.064297 s  ClockTime = 0 s

Time = 20s

smoothSolver:  Solving for Ux, Initial residual = 0.0121807, Final residual = 0.000883645, No Iterations 5
smoothSolver:  Solving for Uy, Initial residual = 0.273907, Final residual = 0.0159152, No Iterations 3
Pressure gradient source: uncorrected Ubar = 1.04732, pressure gradient = 1.1189
GAMG:  Solving for p, Initial residual = 0.118975, Final residual = 0.00935518, No Iterations 9
time step continuity errors : sum local = 0.117268, global = 4.22974e-17, cumulative = -3.12314e-16
Pressure gradient source: uncorrected Ubar = 1.00657, pressure gradient = 9.25324
smoothSolver:  Solving for omega, Initial residual = 0.0723339, Final residual = 0.00495262, No Iterations 4
smoothSolver:  Solving for k, Initial residual = 0.0491566, Final residual = 0.00346187, No Iterations 5
ExecutionTime = 0.067087 s  ClockTime = 0 s

Time = 21s

smoothSolver:  Solving for Ux, Initial residual = 0.011197, Final residual = 0.000846765, No Iterations 5
smoothSolver:  Solving for Uy, Initial residual = 0.317464, Final residual = 0.0206269, No Iterations 3
Pressure gradient source: uncorrected Ubar = 1.00531, pressure gradient = 8.11574
GAMG:  Solving for p, Initial residual = 0.136623, Final residual = 0.0127949, No Iterations 10
time step continuity errors : sum local = 0.09697, global = 6.35546e-17, cumulative = -2.4876e-16
Pressure gradient source: uncorrected Ubar = 0.999866, pressure gradient = 9.28188
smoothSolver:  Solving for omega, Initial residual = 0.0683305, Final residual = 0.0052966, No Iterations 4
smoothSolver:  Solving for k, Initial residual = 0.0455877, Final residual = 0.00355338, No Iterations 5
ExecutionTime = 0.069918 s  ClockTime = 0 s

Time = 22s

smoothSolver:  Solving for Ux, Initial residual = 0.0106242, Final residual = 0.000824448, No Iterations 5
smoothSolver:  Solving for Uy, Initial residual = 0.296505, Final residual = 0.0248271, No Iterations 3
Pressure gradient source: uncorrected Ubar = 0.997946, pressure gradient = 9.76127
GAMG:  Solving for p, Initial residual = 0.104401, Final residual = 0.00915832, No Iterations 10
time step continuity errors : sum local = 0.0996444, global = -2.52755e-17, cumulative = -2.74035e-16
Pressure gradient source: uncorrected Ubar = 0.998541, pressure gradient = 9.6225
smoothSolver:  Solving for omega, Initial residual = 0.066405, Final residual = 0.00551186, No Iterations 4
smoothSolver:  Solving for k, Initial residual = 0.0420068, Final residual = 0.00347784, No Iterations 5
ExecutionTime = 0.072787 s  ClockTime = 0 s

Time = 23s

smoothSolver:  Solving for Ux, Initial residual = 0.0102076, Final residual = 0.000806124, No Iterations 5
smoothSolver:  Solving for Uy, Initial residual = 0.26307, Final residual = 0.0235244, No Iterations 3
Pressure gradient source: uncorrected Ubar = 0.994359, pressure gradient = 11.0665
GAMG:  Solving for p, Initial residual = 0.046231, Final residual = 0.00415901, No Iterations 7
time step continuity errors : sum local = 0.0994364, global = 1.30036e-17, cumulative = -2.61032e-16
Pressure gradient source: uncorrected Ubar = 0.9994, pressure gradient = 9.77619
smoothSolver:  Solving for omega, Initial residual = 0.0657235, Final residual = 0.00567434, No Iterations 4
smoothSolver:  Solving for k, Initial residual = 0.0388724, Final residual = 0.00339181, No Iterations 5
ExecutionTime = 0.075456 s  ClockTime = 0 s

Time = 24s

smoothSolver:  Solving for Ux, Initial residual = 0.00980827, Final residual = 0.000785773, No Iterations 5
smoothSolver:  Solving for Uy, Initial residual = 0.262745, Final residual = 0.0233461, No Iterations 3
Pressure gradient source: uncorrected Ubar = 0.990094, pressure gradient = 12.5304
GAMG:  Solving for p, Initial residual = 0.0312524, Final residual = 0.00304458, No Iterations 5
time step continuity errors : sum local = 0.0986235, global = -4.28057e-17, cumulative = -3.03837e-16
Pressure gradient source: uncorrected Ubar = 0.998669, pressure gradient = 10.1462
smoothSolver:  Solving for omega, Initial residual = 0.0638608, Final residual = 0.00579073, No Iterations 4
smoothSolver:  Solving for k, Initial residual = 0.0358522, Final residual = 0.00329497, No Iterations 5
ExecutionTime = 0.078042 s  ClockTime = 0 s

Time = 25s

smoothSolver:  Solving for Ux, Initial residual = 0.0094664, Final residual = 0.000768348, No Iterations 5
smoothSolver:  Solving for Uy, Initial residual = 0.243493, Final residual = 0.0230292, No Iterations 3
Pressure gradient source: uncorrected Ubar = 0.996148, pressure gradient = 11.3134
GAMG:  Solving for p, Initial residual = 0.02185, Final residual = 0.00210412, No Iterations 7
time step continuity errors : sum local = 0.0860461, global = -7.07984e-17, cumulative = -3.74636e-16
Pressure gradient source: uncorrected Ubar = 0.999843, pressure gradient = 10.1936
smoothSolver:  Solving for omega, Initial residual = 0.0630222, Final residual = 0.00589183, No Iterations 4
smoothSolver:  Solving for k, Initial residual = 0.0332561, Final residual = 0.00317951, No Iterations 5
ExecutionTime = 0.080708 s  ClockTime = 0 s

Time = 26s

smoothSolver:  Solving for Ux, Initial residual = 0.0091505, Final residual = 0.000748035, No Iterations 5
smoothSolver:  Solving for Uy, Initial residual = 0.211311, Final residual = 0.0115317, No Iterations 4
Pressure gradient source: uncorrected Ubar = 0.996334, pressure gradient = 11.4076
GAMG:  Solving for p, Initial residual = 0.0169462, Final residual = 0.00156152, No Iterations 7
time step continuity errors : sum local = 0.0701978, global = 2.49371e-17, cumulative = -3.49699e-16
Pressure gradient source: uncorrected Ubar = 0.999662, pressure gradient = 10.3056
smoothSolver:  Solving for omega, Initial residual = 0.066327, Final residual = 0.00637628, No Iterations 4
smoothSolver:  Solving for k, Initial residual = 0.0308662, Final residual = 0.00305708, No Iterations 5
ExecutionTime = 0.083478 s  ClockTime = 0 s

Time = 27s

smoothSolver:  Solving for Ux, Initial residual = 0.00887321, Final residual = 0.000730395, No Iterations 5
smoothSolver:  Solving for Uy, Initial residual = 0.168497, Final residual = 0.0100897, No Iterations 4
Pressure gradient source: uncorrected Ubar = 1.00206, pressure gradient = 9.57583
GAMG:  Solving for p, Initial residual = 0.0128288, Final residual = 0.00120694, No Iterations 6
time step continuity errors : sum local = 0.0585866, global = -5.19367e-17, cumulative = -4.01635e-16
Pressure gradient source: uncorrected Ubar = 1.00045, pressure gradient = 10.1469
smoothSolver:  Solving for omega, Initial residual = 0.0677723, Final residual = 0.00648942, No Iterations 4
smoothSolver:  Solving for k, Initial residual = 0.0286625, Final residual = 0.00184715, No Iterations 6
ExecutionTime = 0.086174 s  ClockTime = 0 s

Time = 28s

smoothSolver:  Solving for Ux, Initial residual = 0.00859046, Final residual = 0.000710453, No Iterations 5
smoothSolver:  Solving for Uy, Initial residual = 0.145014, Final residual = 0.0088357, No Iterations 4
Pressure gradient source: uncorrected Ubar = 0.998938, pressure gradient = 10.5589
GAMG:  Solving for p, Initial residual = 0.0101555, Final residual = 0.000981905, No Iterations 6
time step continuity errors : sum local = 0.0463219, global = -1.25225e-16, cumulative = -5.26861e-16
Pressure gradient source: uncorrected Ubar = 0.999659, pressure gradient = 10.2793
smoothSolver:  Solving for omega, Initial residual = 0.0690707, Final residual = 0.00674274, No Iterations 4
smoothSolver:  Solving for k, Initial residual = 0.0270327, Final residual = 0.00180939, No Iterations 6
ExecutionTime = 0.088868 s  ClockTime = 0 s

Time = 29s

smoothSolver:  Solving for Ux, Initial residual = 0.0083349, Final residual = 0.00069287, No Iterations 5
smoothSolver:  Solving for Uy, Initial residual = 0.126088, Final residual = 0.00826711, No Iterations 4
Pressure gradient source: uncorrected Ubar = 1.00356, pressure gradient = 8.79117
GAMG:  Solving for p, Initial residual = 0.0089873, Final residual = 0.000823952, No Iterations 6
time step continuity errors : sum local = 0.0361782, global = -3.38813e-18, cumulative = -5.30249e-16
Pressure gradient source: uncorrected Ubar = 1.00049, pressure gradient = 10.0735
smoothSolver:  Solving for omega, Initial residual = 0.0687158, Final residual = 0.00679991, No Iterations 4
smoothSolver:  Solving for k, Initial residual = 0.0254261, Final residual = 0.00176026, No Iterations 6
ExecutionTime = 0.0915 s  ClockTime = 0 s

Time = 30s

smoothSolver:  Solving for Ux, Initial residual = 0.00807542, Final residual = 0.000674326, No Iterations 5
smoothSolver:  Solving for Uy, Initial residual = 0.113704, Final residual = 0.00862012, No Iterations 4
Pressure gradient source: uncorrected Ubar = 0.999553, pressure gradient = 10.2775
GAMG:  Solving for p, Initial residual = 0.008487, Final residual = 0.000658811, No Iterations 7
time step continuity errors : sum local = 0.0250933, global = -2.05185e-17, cumulative = -5.50767e-16
Pressure gradient source: uncorrected Ubar = 0.999738, pressure gradient = 10.1929
smoothSolver:  Solving for omega, Initial residual = 0.0685727, Final residual = 0.00453617, No Iterations 5
smoothSolver:  Solving for k, Initial residual = 0.0239709, Final residual = 0.0017044, No Iterations 6
ExecutionTime = 0.094194 s  ClockTime = 0 s

Time = 31s

smoothSolver:  Solving for Ux, Initial residual = 0.00784793, Final residual = 0.000658569, No Iterations 5
smoothSolver:  Solving for Uy, Initial residual = 0.108761, Final residual = 0.00961407, No Iterations 4
Pressure gradient source: uncorrected Ubar = 1.00155, pressure gradient = 9.43055
GAMG:  Solving for p, Initial residual = 0.00778331, Final residual = 0.00059946, No Iterations 7
time step continuity errors : sum local = 0.0182991, global = -1.20973e-16, cumulative = -6.71741e-16
Pressure gradient source: uncorrected Ubar = 1.00015, pressure gradient = 10.1182
smoothSolver:  Solving for omega, Initial residual = 0.0659473, Final residual = 0.00440753, No Iterations 5
smoothSolver:  Solving for k, Initial residual = 0.0225639, Final residual = 0.00162482, No Iterations 6
ExecutionTime = 0.096931 s  ClockTime = 0 s

Time = 32s

smoothSolver:  Solving for Ux, Initial residual = 0.00761761, Final residual = 0.000641551, No Iterations 5
smoothSolver:  Solving for Uy, Initial residual = 0.105864, Final residual = 0.00990908, No Iterations 4
Pressure gradient source: uncorrected Ubar = 0.996985, pressure gradient = 11.7288
GAMG:  Solving for p, Initial residual = 0.00727867, Final residual = 0.000695719, No Iterations 6
time step continuity errors : sum local = 0.0155862, global = -4.68951e-17, cumulative = -7.18636e-16
Pressure gradient source: uncorrected Ubar = 0.999272, pressure gradient = 10.5072
smoothSolver:  Solving for omega, Initial residual = 0.06298, Final residual = 0.00450923, No Iterations 5
smoothSolver:  Solving for k, Initial residual = 0.0213203, Final residual = 0.00156041, No Iterations 6
ExecutionTime = 0.09959 s  ClockTime = 0 s

Time = 33s

smoothSolver:  Solving for Ux, Initial residual = 0.00739227, Final residual = 0.000617394, No Iterations 5
smoothSolver:  Solving for Uy, Initial residual = 0.0961964, Final residual = 0.0094652, No Iterations 4
Pressure gradient source: uncorrected Ubar = 0.994312, pressure gradient = 13.8978
GAMG:  Solving for p, Initial residual = 0.00704476, Final residual = 0.000304354, No Iterations 4
time step continuity errors : sum local = 0.00668794, global = -2.77535e-17, cumulative = -7.46389e-16
Pressure gradient source: uncorrected Ubar = 0.998818, pressure gradient = 11.2119
smoothSolver:  Solving for omega, Initial residual = 0.0603246, Final residual = 0.00470425, No Iterations 5
smoothSolver:  Solving for k, Initial residual = 0.0197098, Final residual = 0.00145706, No Iterations 6
ExecutionTime = 0.102148 s  ClockTime = 0 s

Time = 34s

smoothSolver:  Solving for Ux, Initial residual = 0.00708742, Final residual = 0.00059112, No Iterations 5
smoothSolver:  Solving for Uy, Initial residual = 0.0855965, Final residual = 0.00523757, No Iterations 5
Pressure gradient source: uncorrected Ubar = 0.993589, pressure gradient = 15.4634
GAMG:  Solving for p, Initial residual = 0.00762988, Final residual = 0.000598002, No Iterations 6
time step continuity errors : sum local = 0.0108992, global = -1.05872e-16, cumulative = -8.52261e-16
Pressure gradient source: uncorrected Ubar = 0.998708, pressure gradient = 12.0685
smoothSolver:  Solving for omega, Initial residual = 0.0561421, Final residual = 0.00467023, No Iterations 5
smoothSolver:  Solving for k, Initial residual = 0.0180368, Final residual = 0.00135066, No Iterations 6
ExecutionTime = 0.104812 s  ClockTime = 0 s

Time = 35s

smoothSolver:  Solving for Ux, Initial residual = 0.00678665, Final residual = 0.000567548, No Iterations 5
smoothSolver:  Solving for Uy, Initial residual = 0.0656787, Final residual = 0.00410007, No Iterations 5
Pressure gradient source: uncorrected Ubar = 0.993263, pressure gradient = 17.1112
GAMG:  Solving for p, Initial residual = 0.00804961, Final residual = 0.000671938, No Iterations 5
time step continuity errors : sum local = 0.0103168, global = -7.89841e-17, cumulative = -9.31246e-16
Pressure gradient source: uncorrected Ubar = 0.998664, pressure gradient = 13.0686
smoothSolver:  Solving for omega, Initial residual = 0.0527863, Final residual = 0.00469866, No Iterations 5
smoothSolver:  Solving for k, Initial residual = 0.0163939, Final residual = 0.001217, No Iterations 6
ExecutionTime = 0.107431 s  ClockTime = 0 s

Time = 36s

smoothSolver:  Solving for Ux, Initial residual = 0.00653317, Final residual = 0.000547506, No Iterations 5
smoothSolver:  Solving for Uy, Initial residual = 0.0490181, Final residual = 0.00318315, No Iterations 5
Pressure gradient source: uncorrected Ubar = 0.995799, pressure gradient = 16.646
GAMG:  Solving for p, Initial residual = 0.00753715, Final residual = 0.000645821, No Iterations 5
time step continuity errors : sum local = 0.00816063, global = 1.91904e-17, cumulative = -9.12055e-16
Pressure gradient source: uncorrected Ubar = 0.999101, pressure gradient = 13.834
smoothSolver:  Solving for omega, Initial residual = 0.0478824, Final residual = 0.00451745, No Iterations 5
smoothSolver:  Solving for k, Initial residual = 0.0150489, Final residual = 0.00112218, No Iterations 6
ExecutionTime = 0.11006 s  ClockTime = 0 s

Time = 37s

smoothSolver:  Solving for Ux, Initial residual = 0.00633732, Final residual = 0.000528905, No Iterations 5
smoothSolver:  Solving for Uy, Initial residual = 0.0370463, Final residual = 0.00248918, No Iterations 5
Pressure gradient source: uncorrected Ubar = 0.999597, pressure gradient = 14.2224
GAMG:  Solving for p, Initial residual = 0.00675523, Final residual = 0.000596281, No Iterations 5
time step continuity errors : sum local = 0.00591086, global = -1.30104e-18, cumulative = -9.13356e-16
Pressure gradient source: uncorrected Ubar = 0.99975, pressure gradient = 14.0747
smoothSolver:  Solving for omega, Initial residual = 0.045996, Final residual = 0.0043795, No Iterations 5
smoothSolver:  Solving for k, Initial residual = 0.0138365, Final residual = 0.00103921, No Iterations 6
ExecutionTime = 0.112743 s  ClockTime = 0 s

Time = 38s

smoothSolver:  Solving for Ux, Initial residual = 0.00615281, Final residual = 0.000511538, No Iterations 5
smoothSolver:  Solving for Uy, Initial residual = 0.0301583, Final residual = 0.00226781, No Iterations 5
Pressure gradient source: uncorrected Ubar = 1.00184, pressure gradient = 12.0985
GAMG:  Solving for p, Initial residual = 0.00725561, Final residual = 0.000653631, No Iterations 7
time step continuity errors : sum local = 0.00477226, global = -1.12216e-16, cumulative = -1.02557e-15
Pressure gradient source: uncorrected Ubar = 1.0001, pressure gradient = 13.9666
smoothSolver:  Solving for omega, Initial residual = 0.0462191, Final residual = 0.00394331, No Iterations 5
smoothSolver:  Solving for k, Initial residual = 0.0127272, Final residual = 0.000953017, No Iterations 6
ExecutionTime = 0.115522 s  ClockTime = 0 s

Time = 39s

smoothSolver:  Solving for Ux, Initial residual = 0.00598543, Final residual = 0.000496528, No Iterations 5
smoothSolver:  Solving for Uy, Initial residual = 0.0255731, Final residual = 0.00211863, No Iterations 5
Pressure gradient source: uncorrected Ubar = 1.00211, pressure gradient = 11.5573
GAMG:  Solving for p, Initial residual = 0.00737264, Final residual = 0.000681176, No Iterations 5
time step continuity errors : sum local = 0.00395923, global = -6.36977e-17, cumulative = -1.08927e-15
Pressure gradient source: uncorrected Ubar = 1.00016, pressure gradient = 13.7827
smoothSolver:  Solving for omega, Initial residual = 0.0583111, Final residual = 0.00547934, No Iterations 4
smoothSolver:  Solving for k, Initial residual = 0.0117539, Final residual = 0.000888517, No Iterations 6
ExecutionTime = 0.11812 s  ClockTime = 0 s

Time = 40s

smoothSolver:  Solving for Ux, Initial residual = 0.00583218, Final residual = 0.00048451, No Iterations 5
smoothSolver:  Solving for Uy, Initial residual = 0.0229909, Final residual = 0.00203438, No Iterations 5
Pressure gradient source: uncorrected Ubar = 1.00326, pressure gradient = 9.89446
GAMG:  Solving for p, Initial residual = 0.00982251, Final residual = 0.000791044, No Iterations 3
time step continuity errors : sum local = 0.00360484, global = 8.44627e-17, cumulative = -1.00481e-15
Pressure gradient source: uncorrected Ubar = 1.00028, pressure gradient = 13.454
smoothSolver:  Solving for omega, Initial residual = 0.0719235, Final residual = 0.00501572, No Iterations 4
smoothSolver:  Solving for k, Initial residual = 0.0107842, Final residual = 0.000814439, No Iterations 6
ExecutionTime = 0.120626 s  ClockTime = 0 s

Time = 41s

smoothSolver:  Solving for Ux, Initial residual = 0.00569387, Final residual = 0.000475306, No Iterations 5
smoothSolver:  Solving for Uy, Initial residual = 0.021623, Final residual = 0.00190574, No Iterations 5
Pressure gradient source: uncorrected Ubar = 1.00318, pressure gradient = 9.5466
GAMG:  Solving for p, Initial residual = 0.00523842, Final residual = 0.000394275, No Iterations 4
time step continuity errors : sum local = 0.00237449, global = -8.71699e-17, cumulative = -1.09198e-15
Pressure gradient source: uncorrected Ubar = 1.00036, pressure gradient = 13.0176
smoothSolver:  Solving for omega, Initial residual = 0.0600364, Final residual = 0.00516972, No Iterations 4
smoothSolver:  Solving for k, Initial residual = 0.00996856, Final residual = 0.000765499, No Iterations 6
ExecutionTime = 0.123171 s  ClockTime = 0 s

Time = 42s

smoothSolver:  Solving for Ux, Initial residual = 0.00556522, Final residual = 0.000467313, No Iterations 5
smoothSolver:  Solving for Uy, Initial residual = 0.020382, Final residual = 0.00192812, No Iterations 5
Pressure gradient source: uncorrected Ubar = 1.00218, pressure gradient = 10.1808
GAMG:  Solving for p, Initial residual = 0.00494162, Final residual = 0.000331443, No Iterations 5
time step continuity errors : sum local = 0.00114166, global = 2.81363e-17, cumulative = -1.06384e-15
Pressure gradient source: uncorrected Ubar = 1.00017, pressure gradient = 12.7993
smoothSolver:  Solving for omega, Initial residual = 0.0444408, Final residual = 0.00327606, No Iterations 5
smoothSolver:  Solving for k, Initial residual = 0.00930116, Final residual = 0.000709642, No Iterations 6
ExecutionTime = 0.125799 s  ClockTime = 0 s

Time = 43s

smoothSolver:  Solving for Ux, Initial residual = 0.00545302, Final residual = 0.000459477, No Iterations 5
smoothSolver:  Solving for Uy, Initial residual = 0.019432, Final residual = 0.00125018, No Iterations 6
Pressure gradient source: uncorrected Ubar = 1.00142, pressure gradient = 10.8522
GAMG:  Solving for p, Initial residual = 0.00783743, Final residual = 0.00061587, No Iterations 2
time step continuity errors : sum local = 0.00170699, global = 4.56989e-17, cumulative = -1.01814e-15
Pressure gradient source: uncorrected Ubar = 1.00004, pressure gradient = 12.7417
smoothSolver:  Solving for omega, Initial residual = 0.0384316, Final residual = 0.00289973, No Iterations 5
smoothSolver:  Solving for k, Initial residual = 0.00876053, Final residual = 0.000668832, No Iterations 6
ExecutionTime = 0.12829 s  ClockTime = 0 s

Time = 44s

smoothSolver:  Solving for Ux, Initial residual = 0.0053499, Final residual = 0.000452498, No Iterations 5
smoothSolver:  Solving for Uy, Initial residual = 0.0188268, Final residual = 0.00184498, No Iterations 5
Pressure gradient source: uncorrected Ubar = 1.0021, pressure gradient = 9.79221
GAMG:  Solving for p, Initial residual = 0.00560777, Final residual = 0.000320679, No Iterations 3
time step continuity errors : sum local = 0.00110896, global = -1.2639e-16, cumulative = -1.14453e-15
Pressure gradient source: uncorrected Ubar = 1.00017, pressure gradient = 12.506
smoothSolver:  Solving for omega, Initial residual = 0.0419975, Final residual = 0.00290413, No Iterations 5
smoothSolver:  Solving for k, Initial residual = 0.00825396, Final residual = 0.000623581, No Iterations 6
ExecutionTime = 0.130813 s  ClockTime = 0 s

Time = 45s

smoothSolver:  Solving for Ux, Initial residual = 0.0052522, Final residual = 0.000446446, No Iterations 5
smoothSolver:  Solving for Uy, Initial residual = 0.0206247, Final residual = 0.00134056, No Iterations 6
Pressure gradient source: uncorrected Ubar = 1.00189, pressure gradient = 9.74243
GAMG:  Solving for p, Initial residual = 0.00571519, Final residual = 0.000502054, No Iterations 4
time step continuity errors : sum local = 0.00174685, global = -7.42636e-18, cumulative = -1.15196e-15
Pressure gradient source: uncorrected Ubar = 1.00013, pressure gradient = 12.3122
smoothSolver:  Solving for omega, Initial residual = 0.043365, Final residual = 0.00422906, No Iterations 4
smoothSolver:  Solving for k, Initial residual = 0.00787822, Final residual = 0.00059093, No Iterations 6
ExecutionTime = 0.133385 s  ClockTime = 0 s

Time = 46s

smoothSolver:  Solving for Ux, Initial residual = 0.00517086, Final residual = 0.000441532, No Iterations 5
smoothSolver:  Solving for Uy, Initial residual = 0.0206007, Final residual = 0.00137083, No Iterations 6
Pressure gradient source: uncorrected Ubar = 1.00088, pressure gradient = 10.9752
GAMG:  Solving for p, Initial residual = 0.0103376, Final residual = 0.000670206, No Iterations 3
time step continuity errors : sum local = 0.00162068, global = 6.97011e-17, cumulative = -1.08226e-15
Pressure gradient source: uncorrected Ubar = 0.999982, pressure gradient = 12.339
smoothSolver:  Solving for omega, Initial residual = 0.0456743, Final residual = 0.00361749, No Iterations 4
smoothSolver:  Solving for k, Initial residual = 0.00764367, Final residual = 0.000566522, No Iterations 6
ExecutionTime = 0.135927 s  ClockTime = 0 s

Time = 47s

smoothSolver:  Solving for Ux, Initial residual = 0.005098, Final residual = 0.000437783, No Iterations 5
smoothSolver:  Solving for Uy, Initial residual = 0.0194425, Final residual = 0.00128751, No Iterations 6
Pressure gradient source: uncorrected Ubar = 1.00233, pressure gradient = 8.79816
GAMG:  Solving for p, Initial residual = 0.00705735, Final residual = 0.000550861, No Iterations 3
time step continuity errors : sum local = 0.00200706, global = -1.67238e-17, cumulative = -1.09898e-15
Pressure gradient source: uncorrected Ubar = 1.00023, pressure gradient = 11.9934
smoothSolver:  Solving for omega, Initial residual = 0.0524005, Final residual = 0.00369301, No Iterations 4
smoothSolver:  Solving for k, Initial residual = 0.00736859, Final residual = 0.000543318, No Iterations 6
ExecutionTime = 0.138444 s  ClockTime = 0 s

Time = 48s

smoothSolver:  Solving for Ux, Initial residual = 0.0050235, Final residual = 0.000434076, No Iterations 5
smoothSolver:  Solving for Uy, Initial residual = 0.0203513, Final residual = 0.00135853, No Iterations 6
Pressure gradient source: uncorrected Ubar = 1.00216, pressure gradient = 8.57924
GAMG:  Solving for p, Initial residual = 0.00685443, Final residual = 0.000600104, No Iterations 4
time step continuity errors : sum local = 0.00214525, global = 9.05224e-18, cumulative = -1.08993e-15
Pressure gradient source: uncorrected Ubar = 1.00019, pressure gradient = 11.6891
smoothSolver:  Solving for omega, Initial residual = 0.0511687, Final residual = 0.00359697, No Iterations 4
smoothSolver:  Solving for k, Initial residual = 0.00718184, Final residual = 0.000534319, No Iterations 6
ExecutionTime = 0.141011 s  ClockTime = 0 s

Time = 49s

smoothSolver:  Solving for Ux, Initial residual = 0.00495943, Final residual = 0.000430449, No Iterations 5
smoothSolver:  Solving for Uy, Initial residual = 0.0210531, Final residual = 0.00146735, No Iterations 6
Pressure gradient source: uncorrected Ubar = 1.00044, pressure gradient = 10.9718
GAMG:  Solving for p, Initial residual = 0.0122169, Final residual = 0.000587107, No Iterations 3
time step continuity errors : sum local = 0.00171979, global = -3.14421e-17, cumulative = -1.12137e-15
Pressure gradient source: uncorrected Ubar = 0.999927, pressure gradient = 11.8083
smoothSolver:  Solving for omega, Initial residual = 0.0497441, Final residual = 0.00460808, No Iterations 3
smoothSolver:  Solving for k, Initial residual = 0.00702617, Final residual = 0.000518286, No Iterations 6
ExecutionTime = 0.143531 s  ClockTime = 0 s

Time = 50s

smoothSolver:  Solving for Ux, Initial residual = 0.00490056, Final residual = 0.00042813, No Iterations 5
smoothSolver:  Solving for Uy, Initial residual = 0.0183274, Final residual = 0.00129102, No Iterations 6
Pressure gradient source: uncorrected Ubar = 1.00272, pressure gradient = 7.39616
GAMG:  Solving for p, Initial residual = 0.00828018, Final residual = 0.000491646, No Iterations 3
time step continuity errors : sum local = 0.00195112, global = -4.16334e-17, cumulative = -1.163e-15
Pressure gradient source: uncorrected Ubar = 1.00031, pressure gradient = 11.3068
smoothSolver:  Solving for omega, Initial residual = 0.0538993, Final residual = 0.00459938, No Iterations 3
smoothSolver:  Solving for k, Initial residual = 0.00684277, Final residual = 0.000513329, No Iterations 6
ExecutionTime = 0.146032 s  ClockTime = 0 s

Time = 51s

smoothSolver:  Solving for Ux, Initial residual = 0.00484253, Final residual = 0.000426745, No Iterations 5
smoothSolver:  Solving for Uy, Initial residual = 0.0211675, Final residual = 0.00148551, No Iterations 6
Pressure gradient source: uncorrected Ubar = 1.00343, pressure gradient = 5.62055
GAMG:  Solving for p, Initial residual = 0.00630599, Final residual = 0.000602257, No Iterations 3
time step continuity errors : sum local = 0.00153228, global = -4.32055e-17, cumulative = -1.20621e-15
Pressure gradient source: uncorrected Ubar = 1.00042, pressure gradient = 10.6049
smoothSolver:  Solving for omega, Initial residual = 0.0523341, Final residual = 0.0036958, No Iterations 4
smoothSolver:  Solving for k, Initial residual = 0.00668337, Final residual = 0.00050345, No Iterations 6
ExecutionTime = 0.148537 s  ClockTime = 0 s

Time = 52s

smoothSolver:  Solving for Ux, Initial residual = 0.00478598, Final residual = 0.000423886, No Iterations 5
smoothSolver:  Solving for Uy, Initial residual = 0.0233337, Final residual = 0.00166157, No Iterations 6
Pressure gradient source: uncorrected Ubar = 1.00002, pressure gradient = 10.5693
GAMG:  Solving for p, Initial residual = 0.00586584, Final residual = 0.000536582, No Iterations 3
time step continuity errors : sum local = 0.00202409, global = -4.4235e-17, cumulative = -1.25044e-15
Pressure gradient source: uncorrected Ubar = 0.99984, pressure gradient = 10.8882
smoothSolver:  Solving for omega, Initial residual = 0.0304732, Final residual = 0.0020082, No Iterations 5
smoothSolver:  Solving for k, Initial residual = 0.0065944, Final residual = 0.00049557, No Iterations 6
ExecutionTime = 0.151063 s  ClockTime = 0 s

Time = 53s

smoothSolver:  Solving for Ux, Initial residual = 0.00472297, Final residual = 0.000420691, No Iterations 5
smoothSolver:  Solving for Uy, Initial residual = 0.0169983, Final residual = 0.00124548, No Iterations 6
Pressure gradient source: uncorrected Ubar = 1.00234, pressure gradient = 6.80768
GAMG:  Solving for p, Initial residual = 0.00521097, Final residual = 0.000499088, No Iterations 5
time step continuity errors : sum local = 0.001024, global = -6.85756e-17, cumulative = -1.31902e-15
Pressure gradient source: uncorrected Ubar = 1.00026, pressure gradient = 10.4344
smoothSolver:  Solving for omega, Initial residual = 0.0375534, Final residual = 0.00336252, No Iterations 4
smoothSolver:  Solving for k, Initial residual = 0.00642182, Final residual = 0.000486458, No Iterations 6
ExecutionTime = 0.153688 s  ClockTime = 0 s

Time = 54s

smoothSolver:  Solving for Ux, Initial residual = 0.00466595, Final residual = 0.000417613, No Iterations 5
smoothSolver:  Solving for Uy, Initial residual = 0.0187848, Final residual = 0.00135965, No Iterations 6
Pressure gradient source: uncorrected Ubar = 1.00157, pressure gradient = 7.51159
GAMG:  Solving for p, Initial residual = 0.00574353, Final residual = 0.000243763, No Iterations 4
time step continuity errors : sum local = 0.000527991, global = 1.26364e-16, cumulative = -1.19266e-15
Pressure gradient source: uncorrected Ubar = 1.0001, pressure gradient = 10.2435
smoothSolver:  Solving for omega, Initial residual = 0.0247332, Final residual = 0.00208876, No Iterations 5
smoothSolver:  Solving for k, Initial residual = 0.00632175, Final residual = 0.000482056, No Iterations 6
ExecutionTime = 0.156254 s  ClockTime = 0 s

Time = 55s

smoothSolver:  Solving for Ux, Initial residual = 0.0046097, Final residual = 0.000414916, No Iterations 5
smoothSolver:  Solving for Uy, Initial residual = 0.0205984, Final residual = 0.00156243, No Iterations 6
Pressure gradient source: uncorrected Ubar = 1.00076, pressure gradient = 8.81307
GAMG:  Solving for p, Initial residual = 0.00604893, Final residual = 0.000468691, No Iterations 3
time step continuity errors : sum local = 0.000900074, global = -5.67311e-17, cumulative = -1.24939e-15
Pressure gradient source: uncorrected Ubar = 0.999988, pressure gradient = 10.2661
smoothSolver:  Solving for omega, Initial residual = 0.0252875, Final residual = 0.00211161, No Iterations 5
smoothSolver:  Solving for k, Initial residual = 0.00619867, Final residual = 0.000469616, No Iterations 6
ExecutionTime = 0.158786 s  ClockTime = 0 s

Time = 56s

smoothSolver:  Solving for Ux, Initial residual = 0.00455516, Final residual = 0.000411417, No Iterations 5
smoothSolver:  Solving for Uy, Initial residual = 0.0231963, Final residual = 0.00171417, No Iterations 6
Pressure gradient source: uncorrected Ubar = 1.00122, pressure gradient = 7.85972
GAMG:  Solving for p, Initial residual = 0.00494464, Final residual = 0.00045873, No Iterations 3
time step continuity errors : sum local = 0.00111165, global = -1.12756e-17, cumulative = -1.26066e-15
Pressure gradient source: uncorrected Ubar = 1.00006, pressure gradient = 10.1527
smoothSolver:  Solving for omega, Initial residual = 0.0220444, Final residual = 0.00187201, No Iterations 5
smoothSolver:  Solving for k, Initial residual = 0.00609639, Final residual = 0.000465516, No Iterations 6
ExecutionTime = 0.161307 s  ClockTime = 0 s

Time = 57s

smoothSolver:  Solving for Ux, Initial residual = 0.00450722, Final residual = 0.000408929, No Iterations 5
smoothSolver:  Solving for Uy, Initial residual = 0.0227144, Final residual = 0.00167771, No Iterations 6
Pressure gradient source: uncorrected Ubar = 1.00126, pressure gradient = 7.65411
GAMG:  Solving for p, Initial residual = 0.00704114, Final residual = 0.000593653, No Iterations 5
time step continuity errors : sum local = 0.00122838, global = 6.80333e-17, cumulative = -1.19263e-15
Pressure gradient source: uncorrected Ubar = 1.00008, pressure gradient = 9.99438
smoothSolver:  Solving for omega, Initial residual = 0.0242434, Final residual = 0.00192308, No Iterations 5
smoothSolver:  Solving for k, Initial residual = 0.00599524, Final residual = 0.000456275, No Iterations 6
ExecutionTime = 0.16394 s  ClockTime = 0 s

Time = 58s

smoothSolver:  Solving for Ux, Initial residual = 0.00446073, Final residual = 0.000405781, No Iterations 5
smoothSolver:  Solving for Uy, Initial residual = 0.0233323, Final residual = 0.00171175, No Iterations 6
Pressure gradient source: uncorrected Ubar = 1.00081, pressure gradient = 8.30271
GAMG:  Solving for p, Initial residual = 0.00525009, Final residual = 0.000514963, No Iterations 4
time step continuity errors : sum local = 0.00121356, global = 7.52165e-17, cumulative = -1.11741e-15
Pressure gradient source: uncorrected Ubar = 1, pressure gradient = 9.9929
smoothSolver:  Solving for omega, Initial residual = 0.0216506, Final residual = 0.00165035, No Iterations 5
smoothSolver:  Solving for k, Initial residual = 0.00592488, Final residual = 0.000454681, No Iterations 6
ExecutionTime = 0.166518 s  ClockTime = 0 s

Time = 59s

smoothSolver:  Solving for Ux, Initial residual = 0.00441691, Final residual = 0.000403551, No Iterations 5
smoothSolver:  Solving for Uy, Initial residual = 0.0208573, Final residual = 0.00157937, No Iterations 6
Pressure gradient source: uncorrected Ubar = 1.00165, pressure gradient = 6.57147
GAMG:  Solving for p, Initial residual = 0.00854612, Final residual = 0.000574562, No Iterations 3
time step continuity errors : sum local = 0.00102175, global = -5.45625e-17, cumulative = -1.17198e-15
Pressure gradient source: uncorrected Ubar = 1.00015, pressure gradient = 9.67602
smoothSolver:  Solving for omega, Initial residual = 0.0245871, Final residual = 0.00178144, No Iterations 5
smoothSolver:  Solving for k, Initial residual = 0.00582726, Final residual = 0.000448119, No Iterations 6
ExecutionTime = 0.169042 s  ClockTime = 0 s

Time = 60s

smoothSolver:  Solving for Ux, Initial residual = 0.00437173, Final residual = 0.000400666, No Iterations 5
smoothSolver:  Solving for Uy, Initial residual = 0.0225438, Final residual = 0.00169185, No Iterations 6
Pressure gradient source: uncorrected Ubar = 1.00065, pressure gradient = 8.27097
GAMG:  Solving for p, Initial residual = 0.00658888, Final residual = 0.00039415, No Iterations 3
time step continuity errors : sum local = 0.000713754, global = -2.43945e-18, cumulative = -1.17442e-15
Pressure gradient source: uncorrected Ubar = 0.999979, pressure gradient = 9.72256
smoothSolver:  Solving for omega, Initial residual = 0.0211441, Final residual = 0.00147795, No Iterations 5
smoothSolver:  Solving for k, Initial residual = 0.00575071, Final residual = 0.000441494, No Iterations 6
ExecutionTime = 0.171561 s  ClockTime = 0 s

Time = 61s

smoothSolver:  Solving for Ux, Initial residual = 0.00433185, Final residual = 0.000398766, No Iterations 5
smoothSolver:  Solving for Uy, Initial residual = 0.0196358, Final residual = 0.00149043, No Iterations 6
Pressure gradient source: uncorrected Ubar = 1.0018, pressure gradient = 5.87389
GAMG:  Solving for p, Initial residual = 0.0116259, Final residual = 0.00093727, No Iterations 3
time step continuity errors : sum local = 0.00108908, global = 9.51427e-18, cumulative = -1.1649e-15
Pressure gradient source: uncorrected Ubar = 1.00018, pressure gradient = 9.32675
smoothSolver:  Solving for omega, Initial residual = 0.0243101, Final residual = 0.00162366, No Iterations 5
smoothSolver:  Solving for k, Initial residual = 0.00565642, Final residual = 0.000436265, No Iterations 6
ExecutionTime = 0.174099 s  ClockTime = 0 s

Time = 62s

smoothSolver:  Solving for Ux, Initial residual = 0.00429012, Final residual = 0.000396061, No Iterations 5
smoothSolver:  Solving for Uy, Initial residual = 0.0221318, Final residual = 0.00165807, No Iterations 6
Pressure gradient source: uncorrected Ubar = 1.00048, pressure gradient = 8.2494
GAMG:  Solving for p, Initial residual = 0.0076569, Final residual = 0.000619119, No Iterations 3
time step continuity errors : sum local = 0.000992606, global = 5.21781e-17, cumulative = -1.11272e-15
Pressure gradient source: uncorrected Ubar = 0.999956, pressure gradient = 9.42481
smoothSolver:  Solving for omega, Initial residual = 0.0205958, Final residual = 0.0013589, No Iterations 5
smoothSolver:  Solving for k, Initial residual = 0.00559706, Final residual = 0.00043339, No Iterations 6
ExecutionTime = 0.176614 s  ClockTime = 0 s

Time = 63s

smoothSolver:  Solving for Ux, Initial residual = 0.00425275, Final residual = 0.000394099, No Iterations 5
smoothSolver:  Solving for Uy, Initial residual = 0.020627, Final residual = 0.00156822, No Iterations 6
Pressure gradient source: uncorrected Ubar = 1.00188, pressure gradient = 5.26626
GAMG:  Solving for p, Initial residual = 0.0129414, Final residual = 0.00110999, No Iterations 3
time step continuity errors : sum local = 0.00122685, global = -3.04932e-17, cumulative = -1.14322e-15
Pressure gradient source: uncorrected Ubar = 1.0002, pressure gradient = 8.97447
smoothSolver:  Solving for omega, Initial residual = 0.0238771, Final residual = 0.00229415, No Iterations 4
smoothSolver:  Solving for k, Initial residual = 0.00550119, Final residual = 0.00042561, No Iterations 6
ExecutionTime = 0.179139 s  ClockTime = 0 s

Time = 64s

smoothSolver:  Solving for Ux, Initial residual = 0.00421567, Final residual = 0.000391715, No Iterations 5
smoothSolver:  Solving for Uy, Initial residual = 0.022617, Final residual = 0.00170426, No Iterations 6
Pressure gradient source: uncorrected Ubar = 1.00036, pressure gradient = 8.14393
GAMG:  Solving for p, Initial residual = 0.00815723, Final residual = 0.000762208, No Iterations 3
time step continuity errors : sum local = 0.00119198, global = -2.51814e-17, cumulative = -1.1684e-15
Pressure gradient source: uncorrected Ubar = 0.99994, pressure gradient = 9.11361
smoothSolver:  Solving for omega, Initial residual = 0.0202963, Final residual = 0.00196986, No Iterations 4
smoothSolver:  Solving for k, Initial residual = 0.00545855, Final residual = 0.000423493, No Iterations 6
ExecutionTime = 0.181637 s  ClockTime = 0 s

Time = 65s

smoothSolver:  Solving for Ux, Initial residual = 0.00418135, Final residual = 0.00039021, No Iterations 5
smoothSolver:  Solving for Uy, Initial residual = 0.0205797, Final residual = 0.00154849, No Iterations 6
Pressure gradient source: uncorrected Ubar = 1.00198, pressure gradient = 4.58383
GAMG:  Solving for p, Initial residual = 0.0142097, Final residual = 0.00131588, No Iterations 3
time step continuity errors : sum local = 0.00140994, global = 2.44623e-17, cumulative = -1.14394e-15
Pressure gradient source: uncorrected Ubar = 1.00023, pressure gradient = 8.59805
smoothSolver:  Solving for omega, Initial residual = 0.0235429, Final residual = 0.00215099, No Iterations 4
smoothSolver:  Solving for k, Initial residual = 0.00538218, Final residual = 0.000419196, No Iterations 6
ExecutionTime = 0.184186 s  ClockTime = 0 s

Time = 66s

smoothSolver:  Solving for Ux, Initial residual = 0.00414665, Final residual = 0.00038796, No Iterations 5
smoothSolver:  Solving for Uy, Initial residual = 0.022624, Final residual = 0.00171183, No Iterations 6
Pressure gradient source: uncorrected Ubar = 1.00021, pressure gradient = 8.09906
GAMG:  Solving for p, Initial residual = 0.0084964, Final residual = 0.000793844, No Iterations 3
time step continuity errors : sum local = 0.00126154, global = -3.60753e-17, cumulative = -1.18001e-15
Pressure gradient source: uncorrected Ubar = 0.999919, pressure gradient = 8.79276
smoothSolver:  Solving for omega, Initial residual = 0.0198025, Final residual = 0.00183245, No Iterations 4
smoothSolver:  Solving for k, Initial residual = 0.00535317, Final residual = 0.000417324, No Iterations 6
ExecutionTime = 0.186735 s  ClockTime = 0 s

Time = 67s

smoothSolver:  Solving for Ux, Initial residual = 0.00411358, Final residual = 0.000386531, No Iterations 5
smoothSolver:  Solving for Uy, Initial residual = 0.0207654, Final residual = 0.00152133, No Iterations 6
Pressure gradient source: uncorrected Ubar = 1.00203, pressure gradient = 4.00123
GAMG:  Solving for p, Initial residual = 0.0157254, Final residual = 0.00149626, No Iterations 3
time step continuity errors : sum local = 0.00152439, global = -5.72594e-17, cumulative = -1.23727e-15
Pressure gradient source: uncorrected Ubar = 1.00024, pressure gradient = 8.22956
smoothSolver:  Solving for omega, Initial residual = 0.0231627, Final residual = 0.00201771, No Iterations 4
smoothSolver:  Solving for k, Initial residual = 0.00527769, Final residual = 0.000413705, No Iterations 6
ExecutionTime = 0.189248 s  ClockTime = 0 s

Time = 68s

smoothSolver:  Solving for Ux, Initial residual = 0.00407988, Final residual = 0.000384209, No Iterations 5
smoothSolver:  Solving for Uy, Initial residual = 0.0226812, Final residual = 0.00171607, No Iterations 6
Pressure gradient source: uncorrected Ubar = 1.00005, pressure gradient = 8.10437
GAMG:  Solving for p, Initial residual = 0.00916957, Final residual = 0.000819826, No Iterations 3
time step continuity errors : sum local = 0.00126906, global = 4.57533e-17, cumulative = -1.19152e-15
Pressure gradient source: uncorrected Ubar = 0.999896, pressure gradient = 8.48713
smoothSolver:  Solving for omega, Initial residual = 0.0195119, Final residual = 0.00173715, No Iterations 4
smoothSolver:  Solving for k, Initial residual = 0.00525019, Final residual = 0.000410713, No Iterations 6
ExecutionTime = 0.191769 s  ClockTime = 0 s

Time = 69s

smoothSolver:  Solving for Ux, Initial residual = 0.00404791, Final residual = 0.000382569, No Iterations 5
smoothSolver:  Solving for Uy, Initial residual = 0.0209254, Final residual = 0.00149888, No Iterations 6
Pressure gradient source: uncorrected Ubar = 1.00209, pressure gradient = 3.42889
GAMG:  Solving for p, Initial residual = 0.0179191, Final residual = 0.00165682, No Iterations 3
time step continuity errors : sum local = 0.00153483, global = 8.47036e-18, cumulative = -1.18305e-15
Pressure gradient source: uncorrected Ubar = 1.00025, pressure gradient = 7.87481
smoothSolver:  Solving for omega, Initial residual = 0.0230749, Final residual = 0.00194586, No Iterations 4
smoothSolver:  Solving for k, Initial residual = 0.00518612, Final residual = 0.000408886, No Iterations 6
ExecutionTime = 0.194302 s  ClockTime = 0 s

Time = 70s

smoothSolver:  Solving for Ux, Initial residual = 0.00401567, Final residual = 0.000380264, No Iterations 5
smoothSolver:  Solving for Uy, Initial residual = 0.0229463, Final residual = 0.00173182, No Iterations 6
Pressure gradient source: uncorrected Ubar = 0.999921, pressure gradient = 8.07748
GAMG:  Solving for p, Initial residual = 0.0101661, Final residual = 0.000834549, No Iterations 3
time step continuity errors : sum local = 0.00121161, global = 5.09916e-17, cumulative = -1.13205e-15
Pressure gradient source: uncorrected Ubar = 0.999877, pressure gradient = 8.18808
smoothSolver:  Solving for omega, Initial residual = 0.019186, Final residual = 0.0016282, No Iterations 4
smoothSolver:  Solving for k, Initial residual = 0.00517274, Final residual = 0.000408049, No Iterations 6
ExecutionTime = 0.196831 s  ClockTime = 0 s

Time = 71s

smoothSolver:  Solving for Ux, Initial residual = 0.00398563, Final residual = 0.000378604, No Iterations 5
smoothSolver:  Solving for Uy, Initial residual = 0.0209297, Final residual = 0.00148153, No Iterations 6
Pressure gradient source: uncorrected Ubar = 1.00218, pressure gradient = 2.7611
GAMG:  Solving for p, Initial residual = 0.0207229, Final residual = 0.00176814, No Iterations 3
time step continuity errors : sum local = 0.00145415, global = -4.12264e-17, cumulative = -1.17328e-15
Pressure gradient source: uncorrected Ubar = 1.00027, pressure gradient = 7.50868
smoothSolver:  Solving for omega, Initial residual = 0.0228793, Final residual = 0.00184632, No Iterations 4
smoothSolver:  Solving for k, Initial residual = 0.0051087, Final residual = 0.000405282, No Iterations 6
ExecutionTime = 0.199338 s  ClockTime = 0 s

Time = 72s

smoothSolver:  Solving for Ux, Initial residual = 0.00395577, Final residual = 0.00037635, No Iterations 5
smoothSolver:  Solving for Uy, Initial residual = 0.0235443, Final residual = 0.00177004, No Iterations 6
Pressure gradient source: uncorrected Ubar = 0.999818, pressure gradient = 7.98625
GAMG:  Solving for p, Initial residual = 0.011242, Final residual = 0.000594062, No Iterations 3
time step continuity errors : sum local = 0.00080294, global = 1.58701e-17, cumulative = -1.15741e-15
Pressure gradient source: uncorrected Ubar = 0.999862, pressure gradient = 7.86956
smoothSolver:  Solving for omega, Initial residual = 0.0191709, Final residual = 0.00159817, No Iterations 4
smoothSolver:  Solving for k, Initial residual = 0.00509004, Final residual = 0.000399735, No Iterations 6
ExecutionTime = 0.201843 s  ClockTime = 0 s

Time = 73s

smoothSolver:  Solving for Ux, Initial residual = 0.00392461, Final residual = 0.000374754, No Iterations 5
smoothSolver:  Solving for Uy, Initial residual = 0.0207371, Final residual = 0.00144407, No Iterations 6
Pressure gradient source: uncorrected Ubar = 1.0022, pressure gradient = 2.26501
GAMG:  Solving for p, Initial residual = 0.0250157, Final residual = 0.00213982, No Iterations 3
time step continuity errors : sum local = 0.00141124, global = -3.11708e-18, cumulative = -1.16053e-15
Pressure gradient source: uncorrected Ubar = 1.00028, pressure gradient = 7.15546
smoothSolver:  Solving for omega, Initial residual = 0.0227819, Final residual = 0.00176837, No Iterations 4
smoothSolver:  Solving for k, Initial residual = 0.00504129, Final residual = 0.000400427, No Iterations 6
ExecutionTime = 0.204371 s  ClockTime = 0 s

Time = 74s

smoothSolver:  Solving for Ux, Initial residual = 0.00389505, Final residual = 0.000372423, No Iterations 5
smoothSolver:  Solving for Uy, Initial residual = 0.0239272, Final residual = 0.00179089, No Iterations 6
Pressure gradient source: uncorrected Ubar = 0.999713, pressure gradient = 7.92473
GAMG:  Solving for p, Initial residual = 0.0124788, Final residual = 0.000543537, No Iterations 3
time step continuity errors : sum local = 0.000664289, global = 1.96512e-18, cumulative = -1.15856e-15
Pressure gradient source: uncorrected Ubar = 0.999847, pressure gradient = 7.56724
smoothSolver:  Solving for omega, Initial residual = 0.0190003, Final residual = 0.00152824, No Iterations 4
smoothSolver:  Solving for k, Initial residual = 0.00502794, Final residual = 0.000395304, No Iterations 6
ExecutionTime = 0.206906 s  ClockTime = 0 s

Time = 75s

smoothSolver:  Solving for Ux, Initial residual = 0.00386456, Final residual = 0.000370626, No Iterations 5
smoothSolver:  Solving for Uy, Initial residual = 0.0200916, Final residual = 0.00141062, No Iterations 6
Pressure gradient source: uncorrected Ubar = 1.00224, pressure gradient = 1.73941
GAMG:  Solving for p, Initial residual = 0.02872, Final residual = 0.00218882, No Iterations 3
time step continuity errors : sum local = 0.00126433, global = 9.8997e-18, cumulative = -1.14866e-15
Pressure gradient source: uncorrected Ubar = 1.00029, pressure gradient = 6.80908
smoothSolver:  Solving for omega, Initial residual = 0.0226836, Final residual = 0.00170058, No Iterations 4
smoothSolver:  Solving for k, Initial residual = 0.00497085, Final residual = 0.000393522, No Iterations 6
ExecutionTime = 0.209413 s  ClockTime = 0 s

Time = 76s

smoothSolver:  Solving for Ux, Initial residual = 0.00383493, Final residual = 0.000368297, No Iterations 5
smoothSolver:  Solving for Uy, Initial residual = 0.0253304, Final residual = 0.00188216, No Iterations 6
Pressure gradient source: uncorrected Ubar = 0.999595, pressure gradient = 7.92174
GAMG:  Solving for p, Initial residual = 0.0136123, Final residual = 0.000597284, No Iterations 3
time step continuity errors : sum local = 0.000630231, global = -6.47202e-17, cumulative = -1.21338e-15
Pressure gradient source: uncorrected Ubar = 0.999828, pressure gradient = 7.28179
smoothSolver:  Solving for omega, Initial residual = 0.0187897, Final residual = 0.00145645, No Iterations 4
smoothSolver:  Solving for k, Initial residual = 0.00497395, Final residual = 0.000391074, No Iterations 6
ExecutionTime = 0.211968 s  ClockTime = 0 s

Time = 77s

smoothSolver:  Solving for Ux, Initial residual = 0.00380494, Final residual = 0.000366397, No Iterations 5
smoothSolver:  Solving for Uy, Initial residual = 0.0196457, Final residual = 0.00139576, No Iterations 6
Pressure gradient source: uncorrected Ubar = 1.00229, pressure gradient = 1.18548
GAMG:  Solving for p, Initial residual = 0.0326712, Final residual = 0.00220024, No Iterations 3
time step continuity errors : sum local = 0.00112973, global = -7.49457e-18, cumulative = -1.22088e-15
Pressure gradient source: uncorrected Ubar = 1.0003, pressure gradient = 6.47158
smoothSolver:  Solving for omega, Initial residual = 0.022636, Final residual = 0.00164462, No Iterations 4
smoothSolver:  Solving for k, Initial residual = 0.00493957, Final residual = 0.000392728, No Iterations 6
ExecutionTime = 0.214497 s  ClockTime = 0 s

Time = 78s

smoothSolver:  Solving for Ux, Initial residual = 0.00377729, Final residual = 0.000364146, No Iterations 5
smoothSolver:  Solving for Uy, Initial residual = 0.0258975, Final residual = 0.00192007, No Iterations 6
Pressure gradient source: uncorrected Ubar = 0.999487, pressure gradient = 7.91333
GAMG:  Solving for p, Initial residual = 0.0145787, Final residual = 0.000690832, No Iterations 3
time step continuity errors : sum local = 0.000638555, global = 3.62461e-17, cumulative = -1.18463e-15
Pressure gradient source: uncorrected Ubar = 0.999811, pressure gradient = 7.00363
smoothSolver:  Solving for omega, Initial residual = 0.0187111, Final residual = 0.00140565, No Iterations 4
smoothSolver:  Solving for k, Initial residual = 0.00494864, Final residual = 0.000390555, No Iterations 6
ExecutionTime = 0.217002 s  ClockTime = 0 s

Time = 79s

smoothSolver:  Solving for Ux, Initial residual = 0.00374658, Final residual = 0.000362311, No Iterations 5
smoothSolver:  Solving for Uy, Initial residual = 0.0193513, Final residual = 0.00136409, No Iterations 6
Pressure gradient source: uncorrected Ubar = 1.00231, pressure gradient = 0.707296
GAMG:  Solving for p, Initial residual = 0.0368414, Final residual = 0.00234545, No Iterations 3
time step continuity errors : sum local = 0.00106832, global = 5.90418e-17, cumulative = -1.12559e-15
Pressure gradient source: uncorrected Ubar = 1.00031, pressure gradient = 6.15234
smoothSolver:  Solving for omega, Initial residual = 0.0225582, Final residual = 0.00158068, No Iterations 4
smoothSolver:  Solving for k, Initial residual = 0.00490135, Final residual = 0.00038943, No Iterations 6
ExecutionTime = 0.219517 s  ClockTime = 0 s

Time = 80s

smoothSolver:  Solving for Ux, Initial residual = 0.0037204, Final residual = 0.000360095, No Iterations 5
smoothSolver:  Solving for Uy, Initial residual = 0.0259318, Final residual = 0.00192457, No Iterations 6
Pressure gradient source: uncorrected Ubar = 0.999398, pressure gradient = 7.88368
GAMG:  Solving for p, Initial residual = 0.0153618, Final residual = 0.000734162, No Iterations 3
time step continuity errors : sum local = 0.000623779, global = 1.65613e-17, cumulative = -1.10903e-15
Pressure gradient source: uncorrected Ubar = 0.999797, pressure gradient = 6.73703
smoothSolver:  Solving for omega, Initial residual = 0.0185941, Final residual = 0.00135037, No Iterations 4
smoothSolver:  Solving for k, Initial residual = 0.00492947, Final residual = 0.00039087, No Iterations 6
ExecutionTime = 0.222037 s  ClockTime = 0 s

Time = 81s

smoothSolver:  Solving for Ux, Initial residual = 0.00368983, Final residual = 0.000358325, No Iterations 5
smoothSolver:  Solving for Uy, Initial residual = 0.0193733, Final residual = 0.00137104, No Iterations 6
Pressure gradient source: uncorrected Ubar = 1.00234, pressure gradient = 0.23856
GAMG:  Solving for p, Initial residual = 0.0411068, Final residual = 0.0025553, No Iterations 3
time step continuity errors : sum local = 0.00104555, global = -1.91091e-18, cumulative = -1.11094e-15
Pressure gradient source: uncorrected Ubar = 1.00032, pressure gradient = 5.84376
smoothSolver:  Solving for omega, Initial residual = 0.0224196, Final residual = 0.00151422, No Iterations 4
smoothSolver:  Solving for k, Initial residual = 0.00488219, Final residual = 0.000389084, No Iterations 6
ExecutionTime = 0.224558 s  ClockTime = 0 s

Time = 82s

smoothSolver:  Solving for Ux, Initial residual = 0.00366441, Final residual = 0.000356199, No Iterations 5
smoothSolver:  Solving for Uy, Initial residual = 0.0260543, Final residual = 0.00193571, No Iterations 6
Pressure gradient source: uncorrected Ubar = 0.999323, pressure gradient = 7.83243
GAMG:  Solving for p, Initial residual = 0.0161261, Final residual = 0.000756041, No Iterations 3
time step continuity errors : sum local = 0.000607585, global = 7.04731e-18, cumulative = -1.10389e-15
Pressure gradient source: uncorrected Ubar = 0.999785, pressure gradient = 6.47594
smoothSolver:  Solving for omega, Initial residual = 0.0185295, Final residual = 0.00130526, No Iterations 4
smoothSolver:  Solving for k, Initial residual = 0.00490568, Final residual = 0.000389291, No Iterations 6
ExecutionTime = 0.227075 s  ClockTime = 0 s

Time = 83s

smoothSolver:  Solving for Ux, Initial residual = 0.00363502, Final residual = 0.000354253, No Iterations 5
smoothSolver:  Solving for Uy, Initial residual = 0.0194526, Final residual = 0.00140685, No Iterations 6
Pressure gradient source: uncorrected Ubar = 1.00237, pressure gradient = -0.224107
GAMG:  Solving for p, Initial residual = 0.0462344, Final residual = 0.00280554, No Iterations 3
time step continuity errors : sum local = 0.00103321, global = -1.02593e-17, cumulative = -1.11415e-15
Pressure gradient source: uncorrected Ubar = 1.00033, pressure gradient = 5.54056
smoothSolver:  Solving for omega, Initial residual = 0.0223437, Final residual = 0.00222721, No Iterations 3
smoothSolver:  Solving for k, Initial residual = 0.00488053, Final residual = 0.000391104, No Iterations 6
ExecutionTime = 0.229577 s  ClockTime = 0 s

Time = 84s

smoothSolver:  Solving for Ux, Initial residual = 0.00361411, Final residual = 0.000352683, No Iterations 5
smoothSolver:  Solving for Uy, Initial residual = 0.026173, Final residual = 0.00194257, No Iterations 6
Pressure gradient source: uncorrected Ubar = 0.999275, pressure gradient = 7.71346
GAMG:  Solving for p, Initial residual = 0.0170017, Final residual = 0.000776631, No Iterations 3
time step continuity errors : sum local = 0.000593411, global = -4.30225e-17, cumulative = -1.15717e-15
Pressure gradient source: uncorrected Ubar = 0.999777, pressure gradient = 6.20756
smoothSolver:  Solving for omega, Initial residual = 0.0184007, Final residual = 0.0012545, No Iterations 4
smoothSolver:  Solving for k, Initial residual = 0.00491909, Final residual = 0.000392036, No Iterations 6
ExecutionTime = 0.232123 s  ClockTime = 0 s

Time = 85s

smoothSolver:  Solving for Ux, Initial residual = 0.00358413, Final residual = 0.00035062, No Iterations 5
smoothSolver:  Solving for Uy, Initial residual = 0.0194675, Final residual = 0.00144453, No Iterations 6
Pressure gradient source: uncorrected Ubar = 1.00239, pressure gradient = -0.683256
GAMG:  Solving for p, Initial residual = 0.0523075, Final residual = 0.00311246, No Iterations 3
time step continuity errors : sum local = 0.00102507, global = -5.41288e-17, cumulative = -1.2113e-15
Pressure gradient source: uncorrected Ubar = 1.00034, pressure gradient = 5.23137
smoothSolver:  Solving for omega, Initial residual = 0.0221933, Final residual = 0.00215203, No Iterations 3
smoothSolver:  Solving for k, Initial residual = 0.00489018, Final residual = 0.000392969, No Iterations 6
ExecutionTime = 0.234668 s  ClockTime = 0 s

Time = 86s

smoothSolver:  Solving for Ux, Initial residual = 0.0035649, Final residual = 0.000349257, No Iterations 5
smoothSolver:  Solving for Uy, Initial residual = 0.0262932, Final residual = 0.00194882, No Iterations 6
Pressure gradient source: uncorrected Ubar = 0.99922, pressure gradient = 7.61557
GAMG:  Solving for p, Initial residual = 0.0179306, Final residual = 0.000812451, No Iterations 3
time step continuity errors : sum local = 0.000589359, global = -1.60594e-17, cumulative = -1.22736e-15
Pressure gradient source: uncorrected Ubar = 0.999769, pressure gradient = 5.93892
smoothSolver:  Solving for omega, Initial residual = 0.0182391, Final residual = 0.00120692, No Iterations 4
smoothSolver:  Solving for k, Initial residual = 0.00492835, Final residual = 0.00039485, No Iterations 6
ExecutionTime = 0.237186 s  ClockTime = 0 s

Time = 87s

smoothSolver:  Solving for Ux, Initial residual = 0.00353434, Final residual = 0.000347215, No Iterations 5
smoothSolver:  Solving for Uy, Initial residual = 0.0194767, Final residual = 0.00146578, No Iterations 6
Pressure gradient source: uncorrected Ubar = 1.00241, pressure gradient = -1.13698
GAMG:  Solving for p, Initial residual = 0.0608284, Final residual = 0.00359561, No Iterations 3
time step continuity errors : sum local = 0.00102474, global = 4.84096e-17, cumulative = -1.17895e-15
Pressure gradient source: uncorrected Ubar = 1.00035, pressure gradient = 4.92278
smoothSolver:  Solving for omega, Initial residual = 0.0220304, Final residual = 0.00208156, No Iterations 3
smoothSolver:  Solving for k, Initial residual = 0.00489523, Final residual = 0.000394586, No Iterations 6
ExecutionTime = 0.239736 s  ClockTime = 0 s

Time = 88s

smoothSolver:  Solving for Ux, Initial residual = 0.00351744, Final residual = 0.000345971, No Iterations 5
smoothSolver:  Solving for Uy, Initial residual = 0.0264439, Final residual = 0.00196015, No Iterations 6
Pressure gradient source: uncorrected Ubar = 0.999169, pressure gradient = 7.51409
GAMG:  Solving for p, Initial residual = 0.019158, Final residual = 0.000852638, No Iterations 3
time step continuity errors : sum local = 0.000577495, global = 3.11602e-19, cumulative = -1.17864e-15
Pressure gradient source: uncorrected Ubar = 0.99976, pressure gradient = 5.67092
smoothSolver:  Solving for omega, Initial residual = 0.0180817, Final residual = 0.00180779, No Iterations 3
smoothSolver:  Solving for k, Initial residual = 0.0049456, Final residual = 0.000397118, No Iterations 6
ExecutionTime = 0.242244 s  ClockTime = 0 s

Time = 89s

smoothSolver:  Solving for Ux, Initial residual = 0.00348876, Final residual = 0.000344291, No Iterations 5
smoothSolver:  Solving for Uy, Initial residual = 0.01947, Final residual = 0.00146495, No Iterations 6
Pressure gradient source: uncorrected Ubar = 1.00248, pressure gradient = -1.76346
GAMG:  Solving for p, Initial residual = 0.0733574, Final residual = 0.00421636, No Iterations 3
time step continuity errors : sum local = 0.00100658, global = -2.35793e-18, cumulative = -1.181e-15
Pressure gradient source: uncorrected Ubar = 1.00036, pressure gradient = 4.58369
smoothSolver:  Solving for omega, Initial residual = 0.021888, Final residual = 0.00202898, No Iterations 3
[...]
smoothSolver:  Solving for k, Initial residual = 1.61819e-05, Final residual = 6.72714e-06, No Iterations 2
ExecutionTime = 11.7229 s  ClockTime = 12 s

Time = 4534s

smoothSolver:  Solving for Ux, Initial residual = 6.98725e-06, Final residual = 6.98725e-06, No Iterations 0
smoothSolver:  Solving for Uy, Initial residual = 0.000138541, Final residual = 1.32856e-05, No Iterations 4
Pressure gradient source: uncorrected Ubar = 1, pressure gradient = 0.00318044
GAMG:  Solving for p, Initial residual = 3.6253e-05, Final residual = 2.50857e-06, No Iterations 3
time step continuity errors : sum local = 2.28488e-11, global = 3.60745e-18, cumulative = -1.67317e-15
Pressure gradient source: uncorrected Ubar = 1, pressure gradient = 0.00318046
smoothSolver:  Solving for omega, Initial residual = 6.07052e-06, Final residual = 6.07052e-06, No Iterations 0
smoothSolver:  Solving for k, Initial residual = 1.61709e-05, Final residual = 6.73482e-06, No Iterations 2
ExecutionTime = 11.7253 s  ClockTime = 12 s

Time = 4535s

smoothSolver:  Solving for Ux, Initial residual = 6.99766e-06, Final residual = 6.99766e-06, No Iterations 0
smoothSolver:  Solving for Uy, Initial residual = 0.000146109, Final residual = 9.98836e-06, No Iterations 5
Pressure gradient source: uncorrected Ubar = 1, pressure gradient = 0.00318046
GAMG:  Solving for p, Initial residual = 3.72733e-05, Final residual = 2.69085e-06, No Iterations 5
time step continuity errors : sum local = 2.44919e-11, global = -2.18266e-18, cumulative = -1.67535e-15
Pressure gradient source: uncorrected Ubar = 1, pressure gradient = 0.00318047
smoothSolver:  Solving for omega, Initial residual = 6.0702e-06, Final residual = 6.0702e-06, No Iterations 0
smoothSolver:  Solving for k, Initial residual = 1.6025e-05, Final residual = 6.65654e-06, No Iterations 2
ExecutionTime = 11.7278 s  ClockTime = 12 s

Time = 4536s

smoothSolver:  Solving for Ux, Initial residual = 7.00812e-06, Final residual = 7.00812e-06, No Iterations 0
smoothSolver:  Solving for Uy, Initial residual = 0.000138433, Final residual = 8.53089e-06, No Iterations 5
Pressure gradient source: uncorrected Ubar = 1, pressure gradient = 0.00318047
GAMG:  Solving for p, Initial residual = 3.49405e-05, Final residual = 3.18595e-06, No Iterations 3
time step continuity errors : sum local = 2.86529e-11, global = -3.50048e-18, cumulative = -1.67885e-15
Pressure gradient source: uncorrected Ubar = 1, pressure gradient = 0.00318049
smoothSolver:  Solving for omega, Initial residual = 6.06987e-06, Final residual = 6.06987e-06, No Iterations 0
smoothSolver:  Solving for k, Initial residual = 1.60724e-05, Final residual = 6.71426e-06, No Iterations 2
ExecutionTime = 11.7303 s  ClockTime = 12 s

Time = 4537s

smoothSolver:  Solving for Ux, Initial residual = 7.01837e-06, Final residual = 7.01837e-06, No Iterations 0
smoothSolver:  Solving for Uy, Initial residual = 0.000159951, Final residual = 9.97874e-06, No Iterations 5
Pressure gradient source: uncorrected Ubar = 1, pressure gradient = 0.00318049
GAMG:  Solving for p, Initial residual = 4.37218e-05, Final residual = 3.3672e-06, No Iterations 5
time step continuity errors : sum local = 3.01808e-11, global = 1.65354e-18, cumulative = -1.6772e-15
Pressure gradient source: uncorrected Ubar = 1, pressure gradient = 0.00318051
smoothSolver:  Solving for omega, Initial residual = 6.06955e-06, Final residual = 6.06955e-06, No Iterations 0
smoothSolver:  Solving for k, Initial residual = 1.58797e-05, Final residual = 6.59556e-06, No Iterations 2
ExecutionTime = 11.7328 s  ClockTime = 12 s

Time = 4538s

smoothSolver:  Solving for Ux, Initial residual = 7.02866e-06, Final residual = 7.02866e-06, No Iterations 0
smoothSolver:  Solving for Uy, Initial residual = 0.000138735, Final residual = 1.36854e-05, No Iterations 4
Pressure gradient source: uncorrected Ubar = 1, pressure gradient = 0.00318051
GAMG:  Solving for p, Initial residual = 3.44791e-05, Final residual = 2.69331e-06, No Iterations 4
time step continuity errors : sum local = 2.53246e-11, global = 6.82295e-19, cumulative = -1.67652e-15
Pressure gradient source: uncorrected Ubar = 1, pressure gradient = 0.00318053
smoothSolver:  Solving for omega, Initial residual = 6.06923e-06, Final residual = 6.06923e-06, No Iterations 0
smoothSolver:  Solving for k, Initial residual = 1.58616e-05, Final residual = 6.59501e-06, No Iterations 2
ExecutionTime = 11.7353 s  ClockTime = 12 s

Time = 4539s

smoothSolver:  Solving for Ux, Initial residual = 7.03878e-06, Final residual = 7.03878e-06, No Iterations 0
smoothSolver:  Solving for Uy, Initial residual = 0.000131038, Final residual = 8.67719e-06, No Iterations 5
Pressure gradient source: uncorrected Ubar = 1, pressure gradient = 0.00318053
GAMG:  Solving for p, Initial residual = 3.30527e-05, Final residual = 3.17758e-06, No Iterations 4
time step continuity errors : sum local = 2.87712e-11, global = -3.71372e-18, cumulative = -1.68023e-15
Pressure gradient source: uncorrected Ubar = 1, pressure gradient = 0.00318054
smoothSolver:  Solving for omega, Initial residual = 6.0689e-06, Final residual = 6.0689e-06, No Iterations 0
smoothSolver:  Solving for k, Initial residual = 1.5753e-05, Final residual = 6.55125e-06, No Iterations 2
ExecutionTime = 11.7378 s  ClockTime = 12 s

Time = 4540s

smoothSolver:  Solving for Ux, Initial residual = 7.04895e-06, Final residual = 7.04895e-06, No Iterations 0
smoothSolver:  Solving for Uy, Initial residual = 0.00013468, Final residual = 1.31432e-05, No Iterations 4
Pressure gradient source: uncorrected Ubar = 1, pressure gradient = 0.00318054
GAMG:  Solving for p, Initial residual = 3.62085e-05, Final residual = 2.82538e-06, No Iterations 4
time step continuity errors : sum local = 2.60317e-11, global = 2.5682e-18, cumulative = -1.67766e-15
Pressure gradient source: uncorrected Ubar = 1, pressure gradient = 0.00318056
smoothSolver:  Solving for omega, Initial residual = 6.06858e-06, Final residual = 6.06858e-06, No Iterations 0
smoothSolver:  Solving for k, Initial residual = 1.57622e-05, Final residual = 6.57741e-06, No Iterations 2
ExecutionTime = 11.7402 s  ClockTime = 12 s

Time = 4541s

smoothSolver:  Solving for Ux, Initial residual = 7.05893e-06, Final residual = 7.05893e-06, No Iterations 0
smoothSolver:  Solving for Uy, Initial residual = 0.000150344, Final residual = 1.01846e-05, No Iterations 5
Pressure gradient source: uncorrected Ubar = 1, pressure gradient = 0.00318056
GAMG:  Solving for p, Initial residual = 3.87706e-05, Final residual = 2.97413e-06, No Iterations 6
time step continuity errors : sum local = 2.67679e-11, global = -1.44637e-19, cumulative = -1.67781e-15
Pressure gradient source: uncorrected Ubar = 1, pressure gradient = 0.00318058
smoothSolver:  Solving for omega, Initial residual = 6.06825e-06, Final residual = 6.06825e-06, No Iterations 0
smoothSolver:  Solving for k, Initial residual = 1.55968e-05, Final residual = 6.48634e-06, No Iterations 2
ExecutionTime = 11.7427 s  ClockTime = 12 s

Time = 4542s

smoothSolver:  Solving for Ux, Initial residual = 7.06897e-06, Final residual = 7.06897e-06, No Iterations 0
smoothSolver:  Solving for Uy, Initial residual = 0.000141411, Final residual = 8.55019e-06, No Iterations 5
Pressure gradient source: uncorrected Ubar = 1, pressure gradient = 0.00318058
GAMG:  Solving for p, Initial residual = 3.67068e-05, Final residual = 2.97144e-06, No Iterations 3
time step continuity errors : sum local = 2.6599e-11, global = -8.7875e-18, cumulative = -1.68659e-15
Pressure gradient source: uncorrected Ubar = 1, pressure gradient = 0.00318059
smoothSolver:  Solving for omega, Initial residual = 6.06793e-06, Final residual = 6.06793e-06, No Iterations 0
smoothSolver:  Solving for k, Initial residual = 1.55719e-05, Final residual = 6.47229e-06, No Iterations 2
ExecutionTime = 11.7451 s  ClockTime = 12 s

Time = 4543s

smoothSolver:  Solving for Ux, Initial residual = 7.0788e-06, Final residual = 7.0788e-06, No Iterations 0
smoothSolver:  Solving for Uy, Initial residual = 0.000126515, Final residual = 8.23433e-06, No Iterations 5
Pressure gradient source: uncorrected Ubar = 1, pressure gradient = 0.00318059
GAMG:  Solving for p, Initial residual = 3.06312e-05, Final residual = 2.29399e-06, No Iterations 5
time step continuity errors : sum local = 2.1846e-11, global = -2.44174e-18, cumulative = -1.68904e-15
Pressure gradient source: uncorrected Ubar = 1, pressure gradient = 0.00318061
smoothSolver:  Solving for omega, Initial residual = 6.0676e-06, Final residual = 6.0676e-06, No Iterations 0
smoothSolver:  Solving for k, Initial residual = 1.54586e-05, Final residual = 9.95063e-06, No Iterations 1
ExecutionTime = 11.7476 s  ClockTime = 12 s

Time = 4544s

smoothSolver:  Solving for Ux, Initial residual = 7.08266e-06, Final residual = 7.08266e-06, No Iterations 0
smoothSolver:  Solving for Uy, Initial residual = 0.000145996, Final residual = 1.17667e-05, No Iterations 5
Pressure gradient source: uncorrected Ubar = 1, pressure gradient = 0.00318061
GAMG:  Solving for p, Initial residual = 2.95127e-05, Final residual = 2.31467e-06, No Iterations 8
time step continuity errors : sum local = 2.13792e-11, global = -5.05207e-18, cumulative = -1.69409e-15
Pressure gradient source: uncorrected Ubar = 1, pressure gradient = 0.00318062
smoothSolver:  Solving for omega, Initial residual = 6.06728e-06, Final residual = 6.06728e-06, No Iterations 0
smoothSolver:  Solving for k, Initial residual = 1.54013e-05, Final residual = 9.91384e-06, No Iterations 1
ExecutionTime = 11.7502 s  ClockTime = 12 s

Time = 4545s

smoothSolver:  Solving for Ux, Initial residual = 7.08642e-06, Final residual = 7.08642e-06, No Iterations 0
smoothSolver:  Solving for Uy, Initial residual = 0.000190602, Final residual = 1.45832e-05, No Iterations 5
Pressure gradient source: uncorrected Ubar = 1, pressure gradient = 0.00318062
GAMG:  Solving for p, Initial residual = 4.81931e-05, Final residual = 3.97433e-06, No Iterations 6
time step continuity errors : sum local = 3.41163e-11, global = -1.35911e-18, cumulative = -1.69545e-15
Pressure gradient source: uncorrected Ubar = 1, pressure gradient = 0.00318064
smoothSolver:  Solving for omega, Initial residual = 6.06696e-06, Final residual = 6.06696e-06, No Iterations 0
smoothSolver:  Solving for k, Initial residual = 1.53278e-05, Final residual = 9.86967e-06, No Iterations 1
ExecutionTime = 11.7528 s  ClockTime = 12 s

Time = 4546s

smoothSolver:  Solving for Ux, Initial residual = 7.09015e-06, Final residual = 7.09015e-06, No Iterations 0
smoothSolver:  Solving for Uy, Initial residual = 0.000181734, Final residual = 1.46583e-05, No Iterations 5
Pressure gradient source: uncorrected Ubar = 1, pressure gradient = 0.00318064
GAMG:  Solving for p, Initial residual = 4.05484e-05, Final residual = 3.61267e-06, No Iterations 8
time step continuity errors : sum local = 3.21737e-11, global = 7.8542e-18, cumulative = -1.68759e-15
Pressure gradient source: uncorrected Ubar = 1, pressure gradient = 0.00318065
smoothSolver:  Solving for omega, Initial residual = 6.06664e-06, Final residual = 6.06664e-06, No Iterations 0
smoothSolver:  Solving for k, Initial residual = 1.52548e-05, Final residual = 9.80351e-06, No Iterations 1
ExecutionTime = 11.7554 s  ClockTime = 12 s

Time = 4547s

smoothSolver:  Solving for Ux, Initial residual = 7.09385e-06, Final residual = 7.09385e-06, No Iterations 0
smoothSolver:  Solving for Uy, Initial residual = 0.000190932, Final residual = 1.50063e-05, No Iterations 5
Pressure gradient source: uncorrected Ubar = 1, pressure gradient = 0.00318065
GAMG:  Solving for p, Initial residual = 4.65215e-05, Final residual = 3.86013e-06, No Iterations 8
time step continuity errors : sum local = 3.41582e-11, global = -2.75326e-18, cumulative = -1.69035e-15
Pressure gradient source: uncorrected Ubar = 1, pressure gradient = 0.00318066
smoothSolver:  Solving for omega, Initial residual = 6.06632e-06, Final residual = 6.06632e-06, No Iterations 0
smoothSolver:  Solving for k, Initial residual = 1.52103e-05, Final residual = 9.78909e-06, No Iterations 1
ExecutionTime = 11.758 s  ClockTime = 12 s

Time = 4548s

smoothSolver:  Solving for Ux, Initial residual = 7.09748e-06, Final residual = 7.09748e-06, No Iterations 0
smoothSolver:  Solving for Uy, Initial residual = 0.000169637, Final residual = 1.36431e-05, No Iterations 5
Pressure gradient source: uncorrected Ubar = 1, pressure gradient = 0.00318066
GAMG:  Solving for p, Initial residual = 3.76273e-05, Final residual = 2.8578e-06, No Iterations 10
time step continuity errors : sum local = 2.60808e-11, global = -5.2816e-18, cumulative = -1.69563e-15
Pressure gradient source: uncorrected Ubar = 1, pressure gradient = 0.00318067
smoothSolver:  Solving for omega, Initial residual = 6.066e-06, Final residual = 6.066e-06, No Iterations 0
smoothSolver:  Solving for k, Initial residual = 1.51342e-05, Final residual = 9.72236e-06, No Iterations 1
ExecutionTime = 11.7608 s  ClockTime = 12 s

Time = 4549s

smoothSolver:  Solving for Ux, Initial residual = 7.10111e-06, Final residual = 7.10111e-06, No Iterations 0
smoothSolver:  Solving for Uy, Initial residual = 0.000162865, Final residual = 1.24855e-05, No Iterations 5
Pressure gradient source: uncorrected Ubar = 1, pressure gradient = 0.00318067
GAMG:  Solving for p, Initial residual = 4.30363e-05, Final residual = 3.38814e-06, No Iterations 8
time step continuity errors : sum local = 2.96393e-11, global = -2.79481e-18, cumulative = -1.69842e-15
Pressure gradient source: uncorrected Ubar = 1, pressure gradient = 0.00318068
smoothSolver:  Solving for omega, Initial residual = 6.06568e-06, Final residual = 6.06568e-06, No Iterations 0
smoothSolver:  Solving for k, Initial residual = 1.50844e-05, Final residual = 9.69793e-06, No Iterations 1
ExecutionTime = 11.7634 s  ClockTime = 12 s

Time = 4550s

smoothSolver:  Solving for Ux, Initial residual = 7.10466e-06, Final residual = 7.10466e-06, No Iterations 0
smoothSolver:  Solving for Uy, Initial residual = 0.000133588, Final residual = 1.05183e-05, No Iterations 5
Pressure gradient source: uncorrected Ubar = 1, pressure gradient = 0.00318068
GAMG:  Solving for p, Initial residual = 3.11309e-05, Final residual = 3.09818e-06, No Iterations 8
time step continuity errors : sum local = 2.71845e-11, global = 3.92043e-18, cumulative = -1.6945e-15
Pressure gradient source: uncorrected Ubar = 1, pressure gradient = 0.0031807
smoothSolver:  Solving for omega, Initial residual = 6.06536e-06, Final residual = 6.06536e-06, No Iterations 0
smoothSolver:  Solving for k, Initial residual = 1.49976e-05, Final residual = 9.61952e-06, No Iterations 1
ExecutionTime = 11.766 s  ClockTime = 12 s

Time = 4551s

smoothSolver:  Solving for Ux, Initial residual = 7.10822e-06, Final residual = 7.10822e-06, No Iterations 0
smoothSolver:  Solving for Uy, Initial residual = 0.000135714, Final residual = 9.96855e-06, No Iterations 5
Pressure gradient source: uncorrected Ubar = 1, pressure gradient = 0.0031807
GAMG:  Solving for p, Initial residual = 3.77224e-05, Final residual = 2.844e-06, No Iterations 8
time step continuity errors : sum local = 2.47785e-11, global = 2.25918e-18, cumulative = -1.69224e-15
Pressure gradient source: uncorrected Ubar = 1, pressure gradient = 0.00318071
smoothSolver:  Solving for omega, Initial residual = 6.06504e-06, Final residual = 6.06504e-06, No Iterations 0
smoothSolver:  Solving for k, Initial residual = 1.49743e-05, Final residual = 9.62442e-06, No Iterations 1
ExecutionTime = 11.7686 s  ClockTime = 12 s

Time = 4552s

smoothSolver:  Solving for Ux, Initial residual = 7.1117e-06, Final residual = 7.1117e-06, No Iterations 0
smoothSolver:  Solving for Uy, Initial residual = 0.000111867, Final residual = 8.20158e-06, No Iterations 5
Pressure gradient source: uncorrected Ubar = 1, pressure gradient = 0.00318071
GAMG:  Solving for p, Initial residual = 2.80565e-05, Final residual = 2.53569e-06, No Iterations 8
time step continuity errors : sum local = 2.2027e-11, global = 8.58987e-19, cumulative = -1.69138e-15
Pressure gradient source: uncorrected Ubar = 1, pressure gradient = 0.00318072
smoothSolver:  Solving for omega, Initial residual = 6.06472e-06, Final residual = 6.06472e-06, No Iterations 0
smoothSolver:  Solving for k, Initial residual = 1.48933e-05, Final residual = 9.55347e-06, No Iterations 1
ExecutionTime = 11.7713 s  ClockTime = 12 s

Time = 4553s

smoothSolver:  Solving for Ux, Initial residual = 7.11519e-06, Final residual = 7.11519e-06, No Iterations 0
smoothSolver:  Solving for Uy, Initial residual = 0.000114571, Final residual = 8.24389e-06, No Iterations 5
Pressure gradient source: uncorrected Ubar = 1, pressure gradient = 0.00318072
GAMG:  Solving for p, Initial residual = 3.32156e-05, Final residual = 3.14016e-06, No Iterations 6
time step continuity errors : sum local = 2.62237e-11, global = -4.81039e-18, cumulative = -1.69619e-15
Pressure gradient source: uncorrected Ubar = 1, pressure gradient = 0.00318073
smoothSolver:  Solving for omega, Initial residual = 6.06441e-06, Final residual = 6.06441e-06, No Iterations 0
smoothSolver:  Solving for k, Initial residual = 1.48604e-05, Final residual = 9.54675e-06, No Iterations 1
ExecutionTime = 11.7738 s  ClockTime = 12 s

Time = 4554s

smoothSolver:  Solving for Ux, Initial residual = 7.11859e-06, Final residual = 7.11859e-06, No Iterations 0
smoothSolver:  Solving for Uy, Initial residual = 0.000102518, Final residual = 7.2877e-06, No Iterations 5
Pressure gradient source: uncorrected Ubar = 1, pressure gradient = 0.00318073
GAMG:  Solving for p, Initial residual = 2.46916e-05, Final residual = 2.23827e-06, No Iterations 8
time step continuity errors : sum local = 1.92866e-11, global = -1.14619e-18, cumulative = -1.69734e-15
Pressure gradient source: uncorrected Ubar = 1, pressure gradient = 0.00318074
smoothSolver:  Solving for omega, Initial residual = 6.06409e-06, Final residual = 6.06409e-06, No Iterations 0
smoothSolver:  Solving for k, Initial residual = 1.47796e-05, Final residual = 9.47372e-06, No Iterations 1
ExecutionTime = 11.7764 s  ClockTime = 12 s

Time = 4555s

smoothSolver:  Solving for Ux, Initial residual = 7.12201e-06, Final residual = 7.12201e-06, No Iterations 0
smoothSolver:  Solving for Uy, Initial residual = 0.000100999, Final residual = 7.32283e-06, No Iterations 5
Pressure gradient source: uncorrected Ubar = 1, pressure gradient = 0.00318074
GAMG:  Solving for p, Initial residual = 2.89474e-05, Final residual = 2.63386e-06, No Iterations 6
time step continuity errors : sum local = 2.19989e-11, global = 2.78456e-18, cumulative = -1.69456e-15
Pressure gradient source: uncorrected Ubar = 1, pressure gradient = 0.00318075
smoothSolver:  Solving for omega, Initial residual = 6.06378e-06, Final residual = 6.06378e-06, No Iterations 0
smoothSolver:  Solving for k, Initial residual = 1.47559e-05, Final residual = 9.47765e-06, No Iterations 1
ExecutionTime = 11.7789 s  ClockTime = 12 s

Time = 4556s

smoothSolver:  Solving for Ux, Initial residual = 7.12534e-06, Final residual = 7.12534e-06, No Iterations 0
smoothSolver:  Solving for Uy, Initial residual = 9.25158e-05, Final residual = 6.52403e-06, No Iterations 5
Pressure gradient source: uncorrected Ubar = 1, pressure gradient = 0.00318075
GAMG:  Solving for p, Initial residual = 2.2554e-05, Final residual = 1.83623e-06, No Iterations 8
time step continuity errors : sum local = 1.58215e-11, global = 4.11505e-18, cumulative = -1.69044e-15
Pressure gradient source: uncorrected Ubar = 1, pressure gradient = 0.00318076
smoothSolver:  Solving for omega, Initial residual = 6.06347e-06, Final residual = 6.06347e-06, No Iterations 0
smoothSolver:  Solving for k, Initial residual = 1.46764e-05, Final residual = 9.40888e-06, No Iterations 1
ExecutionTime = 11.7816 s  ClockTime = 12 s


SIMPLE solution converged in 4556 iterations

End

