/*---------------------------------------------------------------------------*\
  =========                 |
  \\      /  F ield         | OpenFOAM: The Open Source CFD Toolbox
   \\    /   O peration     | Website:  https://openfoam.org
    \\  /    A nd           | Version:  10
     \\/     M anipulation  |
\*---------------------------------------------------------------------------*/
Build  : 10-e450dce21ea5
Exec   : blockMesh
Date   : Feb 20 2023
Time   : 14:15:34
Host   : "w530-R9YK46P"
PID    : 18882
I/O    : uncollated
Case   : /home/jdmezazeron/gitDanielMezaZ/turbulenceVisualized/Data/SimulationFiles/K31_Re3339
nProcs : 1
sigFpe : Enabling floating point exception trapping (FOAM_SIGFPE).
fileModificationChecking : Monitoring run-time modified files using timeStampMaster (fileModificationSkew 10)
allowSystemOperations : Allowing user-supplied system call operations

// * * * * * * * * * * * * * * * * * * * * * * * * * * * * * * * * * * * * * //
Create time

Deleting polyMesh directory
    "/home/jdmezazeron/gitDanielMezaZ/turbulenceVisualized/Data/SimulationFiles/K31_Re3339/constant/polyMesh"
Reading "blockMeshDict"

Creating block mesh from
    "system/blockMeshDict"
Creating block edges
No non-planar block faces defined
Creating topology blocks
Creating topology patches

Creating block mesh topology

Check topology

	Basic statistics
		Number of internal faces : 0
		Number of boundary faces : 6
		Number of defined boundary faces : 6
		Number of undefined boundary faces : 0
	Checking patch -> block consistency

Creating block offsets
Creating merge list .

Creating polyMesh from blockMesh
Creating patches
Creating cells
Creating points with scale 1
    Block 0 cell size :
        i : 0.5
        j : 0.00461374 .. 0.018455
        k : 2

Detected cyclic patches; ordering boundary faces

Writing polyMesh
----------------
Mesh Information
----------------
  boundingBox: (-1 0 -1) (1 1 1)
  nPoints: 1010
  nCells: 400
  nFaces: 1704
  nInternalFaces: 696
----------------
Patches
----------------
  patch 0 (start: 696 size: 100) name: inlet
  patch 1 (start: 796 size: 100) name: outlet
  patch 2 (start: 896 size: 4) name: fixedWalls-bottom
  patch 3 (start: 900 size: 4) name: fixedWalls-top
  patch 4 (start: 904 size: 800) name: frontAndBack

End

/*---------------------------------------------------------------------------*\
  =========                 |
  \\      /  F ield         | OpenFOAM: The Open Source CFD Toolbox
   \\    /   O peration     | Website:  https://openfoam.org
    \\  /    A nd           | Version:  10
     \\/     M anipulation  |
\*---------------------------------------------------------------------------*/
Build  : 10-e450dce21ea5
Exec   : simpleFoam
Date   : Feb 20 2023
Time   : 14:15:34
Host   : "w530-R9YK46P"
PID    : 18883
I/O    : uncollated
Case   : /home/jdmezazeron/gitDanielMezaZ/turbulenceVisualized/Data/SimulationFiles/K31_Re3339
nProcs : 1
sigFpe : Enabling floating point exception trapping (FOAM_SIGFPE).
fileModificationChecking : Monitoring run-time modified files using timeStampMaster (fileModificationSkew 10)
allowSystemOperations : Allowing user-supplied system call operations

// * * * * * * * * * * * * * * * * * * * * * * * * * * * * * * * * * * * * * //
Create time

Create mesh for time = 0


SIMPLE: Convergence criteria found
        U: tolerance 0.0001
        p: tolerance 0.01
        omega: tolerance 0.0001

Reading field p

Reading field U

Reading/calculating face flux field phi

Selecting viscosity model Newtonian
Selecting turbulence model type RAS
Selecting RAS turbulence model kOmegaSST
Selecting patchDistMethod meshWave
RAS
{
    RASModel        kOmegaSST;
    turbulence      on;
    printCoeffs     on;
    alphaK1         0.85;
    alphaK2         1;
    alphaOmega1     0.5;
    alphaOmega2     0.856;
    gamma1          0.555556;
    gamma2          0.44;
    beta1           0.075;
    beta2           0.0828;
    betaStar        0.09;
    a1              0.31;
    b1              1;
    c1              10;
    F3              false;
}

No MRF models present

--> FOAM Warning : Creating fvModels from "system/fvOptions" rather than constant/fvModels
No fvModels present
--> FOAM Warning : Creating fvConstraints from "system/fvOptions"

Selecting finite volume constraint type meanVelocityForce
    Name: momentumSource
    - selecting all cells
    - selected 400 cell(s) with volume 4
    Initial pressure gradient = 0


Starting time loop

turbulenceFields stressComponents: storing fields:
    R

Time = 1s

smoothSolver:  Solving for Ux, Initial residual = 0, Final residual = 0, No Iterations 0
smoothSolver:  Solving for Uy, Initial residual = 0, Final residual = 0, No Iterations 0
Pressure gradient source: uncorrected Ubar = 0, pressure gradient = 1180.76
GAMG:  Solving for p, Initial residual = 0.999996, Final residual = 0.0826262, No Iterations 3
time step continuity errors : sum local = 1.10643e-16, global = 2.84159e-18, cumulative = 2.84159e-18
Pressure gradient source: uncorrected Ubar = 0.884653, pressure gradient = 136.197
smoothSolver:  Solving for omega, Initial residual = 0.235316, Final residual = 0.014218, No Iterations 3
smoothSolver:  Solving for k, Initial residual = 1, Final residual = 0.0891791, No Iterations 3
ExecutionTime = 0.014068 s  ClockTime = 0 s

Time = 2s

smoothSolver:  Solving for Ux, Initial residual = 0.992068, Final residual = 0.0939007, No Iterations 6
smoothSolver:  Solving for Uy, Initial residual = 1, Final residual = 0.0974994, No Iterations 5
Pressure gradient source: uncorrected Ubar = 54.1772, pressure gradient = -1012.02
GAMG:  Solving for p, Initial residual = 1, Final residual = 0.0950638, No Iterations 15
time step continuity errors : sum local = 0.0455958, global = 4.54281e-17, cumulative = 4.82697e-17
Pressure gradient source: uncorrected Ubar = 7.90772, pressure gradient = -12.9563
smoothSolver:  Solving for omega, Initial residual = 0.183385, Final residual = 0.00173234, No Iterations 1
smoothSolver:  Solving for k, Initial residual = 0.948181, Final residual = 0.0864514, No Iterations 1
ExecutionTime = 0.017261 s  ClockTime = 0 s

Time = 3s

smoothSolver:  Solving for Ux, Initial residual = 0.419932, Final residual = 0.0344725, No Iterations 6
smoothSolver:  Solving for Uy, Initial residual = 0.615327, Final residual = 0.0313873, No Iterations 2
Pressure gradient source: uncorrected Ubar = -1.69964, pressure gradient = 93.2075
GAMG:  Solving for p, Initial residual = 0.244772, Final residual = 0.0198831, No Iterations 7
time step continuity errors : sum local = 0.0222017, global = 1.24141e-17, cumulative = 6.06838e-17
Pressure gradient source: uncorrected Ubar = 0.453702, pressure gradient = 8.52691
smoothSolver:  Solving for omega, Initial residual = 0.0128458, Final residual = 0.000876243, No Iterations 1
smoothSolver:  Solving for k, Initial residual = 0.519697, Final residual = 0.0201114, No Iterations 2
ExecutionTime = 0.019891 s  ClockTime = 0 s

Time = 4s

smoothSolver:  Solving for Ux, Initial residual = 0.249564, Final residual = 0.0210812, No Iterations 5
smoothSolver:  Solving for Uy, Initial residual = 0.442028, Final residual = 0.0351813, No Iterations 2
Pressure gradient source: uncorrected Ubar = 3.10505, pressure gradient = -54.4041
GAMG:  Solving for p, Initial residual = 0.181439, Final residual = 0.0158075, No Iterations 13
time step continuity errors : sum local = 0.0382582, global = -8.78204e-18, cumulative = 5.19017e-17
Pressure gradient source: uncorrected Ubar = 1.27017, pressure gradient = 0.450229
smoothSolver:  Solving for omega, Initial residual = 0.00984098, Final residual = 0.00038906, No Iterations 2
smoothSolver:  Solving for k, Initial residual = 0.64881, Final residual = 0.0294859, No Iterations 2
ExecutionTime = 0.022791 s  ClockTime = 0 s

Time = 5s

smoothSolver:  Solving for Ux, Initial residual = 0.140927, Final residual = 0.0119373, No Iterations 3
smoothSolver:  Solving for Uy, Initial residual = 0.500549, Final residual = 0.0160088, No Iterations 3
Pressure gradient source: uncorrected Ubar = 0.930525, pressure gradient = 2.89373
GAMG:  Solving for p, Initial residual = 0.277249, Final residual = 0.0181356, No Iterations 9
time step continuity errors : sum local = 0.0416453, global = -6.28905e-17, cumulative = -1.09888e-17
Pressure gradient source: uncorrected Ubar = 0.98802, pressure gradient = 0.871567
smoothSolver:  Solving for omega, Initial residual = 0.0182274, Final residual = 0.00070998, No Iterations 2
bounding omega, min: -0.761576 max: 9004.71 average: 165.606
smoothSolver:  Solving for k, Initial residual = 0.676881, Final residual = 0.011944, No Iterations 2
ExecutionTime = 0.025596 s  ClockTime = 0 s

Time = 6s

smoothSolver:  Solving for Ux, Initial residual = 0.115138, Final residual = 0.00706906, No Iterations 3
smoothSolver:  Solving for Uy, Initial residual = 0.605921, Final residual = 0.0532596, No Iterations 2
Pressure gradient source: uncorrected Ubar = 0.931682, pressure gradient = 3.4978
GAMG:  Solving for p, Initial residual = 0.493999, Final residual = 0.0435742, No Iterations 10
time step continuity errors : sum local = 0.0881843, global = 2.04508e-17, cumulative = 9.462e-18
Pressure gradient source: uncorrected Ubar = 0.992561, pressure gradient = 1.15753
smoothSolver:  Solving for omega, Initial residual = 0.0339437, Final residual = 0.00130091, No Iterations 2
smoothSolver:  Solving for k, Initial residual = 0.423383, Final residual = 0.00796679, No Iterations 2
ExecutionTime = 0.028303 s  ClockTime = 0 s

Time = 7s

smoothSolver:  Solving for Ux, Initial residual = 0.0883511, Final residual = 0.00741761, No Iterations 3
smoothSolver:  Solving for Uy, Initial residual = 0.515069, Final residual = 0.0202589, No Iterations 3
Pressure gradient source: uncorrected Ubar = 0.928101, pressure gradient = 4.50185
GAMG:  Solving for p, Initial residual = 0.463929, Final residual = 0.0463533, No Iterations 8
time step continuity errors : sum local = 0.124301, global = -1.20889e-17, cumulative = -2.62686e-18
Pressure gradient source: uncorrected Ubar = 0.995647, pressure gradient = 1.36002
smoothSolver:  Solving for omega, Initial residual = 0.0379006, Final residual = 0.000507609, No Iterations 2
smoothSolver:  Solving for k, Initial residual = 0.232305, Final residual = 0.00572797, No Iterations 2
ExecutionTime = 0.030964 s  ClockTime = 0 s

Time = 8s

smoothSolver:  Solving for Ux, Initial residual = 0.078702, Final residual = 0.00687575, No Iterations 3
smoothSolver:  Solving for Uy, Initial residual = 0.436426, Final residual = 0.0168641, No Iterations 3
Pressure gradient source: uncorrected Ubar = 0.909607, pressure gradient = 5.89789
GAMG:  Solving for p, Initial residual = 0.360768, Final residual = 0.0330419, No Iterations 11
time step continuity errors : sum local = 0.104182, global = -3.14419e-18, cumulative = -5.77104e-18
Pressure gradient source: uncorrected Ubar = 0.988333, pressure gradient = 1.94572
smoothSolver:  Solving for omega, Initial residual = 0.0262352, Final residual = 0.000706436, No Iterations 2
smoothSolver:  Solving for k, Initial residual = 0.219011, Final residual = 0.0137369, No Iterations 2
ExecutionTime = 0.033749 s  ClockTime = 0 s

Time = 9s

smoothSolver:  Solving for Ux, Initial residual = 0.056469, Final residual = 0.00361859, No Iterations 4
smoothSolver:  Solving for Uy, Initial residual = 0.374493, Final residual = 0.0228001, No Iterations 3
Pressure gradient source: uncorrected Ubar = 0.917811, pressure gradient = 6.58684
GAMG:  Solving for p, Initial residual = 0.270835, Final residual = 0.025811, No Iterations 8
time step continuity errors : sum local = 0.108719, global = 3.08998e-17, cumulative = 2.51287e-17
Pressure gradient source: uncorrected Ubar = 0.988776, pressure gradient = 2.5795
smoothSolver:  Solving for omega, Initial residual = 0.0170318, Final residual = 0.000734857, No Iterations 2
smoothSolver:  Solving for k, Initial residual = 0.16676, Final residual = 0.016337, No Iterations 2
ExecutionTime = 0.036417 s  ClockTime = 0 s

Time = 10s

smoothSolver:  Solving for Ux, Initial residual = 0.0404759, Final residual = 0.00313197, No Iterations 4
smoothSolver:  Solving for Uy, Initial residual = 0.446348, Final residual = 0.0264202, No Iterations 3
Pressure gradient source: uncorrected Ubar = 0.944552, pressure gradient = 6.14488
GAMG:  Solving for p, Initial residual = 0.270824, Final residual = 0.0175804, No Iterations 9
time step continuity errors : sum local = 0.0624302, global = -1.00509e-16, cumulative = -7.53802e-17
Pressure gradient source: uncorrected Ubar = 0.996653, pressure gradient = 2.79469
smoothSolver:  Solving for omega, Initial residual = 0.0152124, Final residual = 0.00101195, No Iterations 2
smoothSolver:  Solving for k, Initial residual = 0.133906, Final residual = 0.00766907, No Iterations 3
ExecutionTime = 0.03916 s  ClockTime = 0 s

Time = 11s

smoothSolver:  Solving for Ux, Initial residual = 0.0295325, Final residual = 0.00259028, No Iterations 4
smoothSolver:  Solving for Uy, Initial residual = 0.57705, Final residual = 0.0299831, No Iterations 3
Pressure gradient source: uncorrected Ubar = 0.955825, pressure gradient = 5.9124
GAMG:  Solving for p, Initial residual = 0.315186, Final residual = 0.00807948, No Iterations 5
time step continuity errors : sum local = 0.0203034, global = -2.0383e-17, cumulative = -9.57632e-17
Pressure gradient source: uncorrected Ubar = 0.999413, pressure gradient = 2.83614
smoothSolver:  Solving for omega, Initial residual = 0.0144193, Final residual = 0.00129817, No Iterations 2
smoothSolver:  Solving for k, Initial residual = 0.107514, Final residual = 0.00823181, No Iterations 3
ExecutionTime = 0.041693 s  ClockTime = 0 s

Time = 12s

smoothSolver:  Solving for Ux, Initial residual = 0.0233897, Final residual = 0.00220985, No Iterations 4
smoothSolver:  Solving for Uy, Initial residual = 0.540969, Final residual = 0.0339756, No Iterations 3
Pressure gradient source: uncorrected Ubar = 0.956528, pressure gradient = 6.33132
GAMG:  Solving for p, Initial residual = 0.413059, Final residual = 0.0241978, No Iterations 7
time step continuity errors : sum local = 0.04009, global = 2.52653e-17, cumulative = -7.04979e-17
Pressure gradient source: uncorrected Ubar = 0.996438, pressure gradient = 3.12251
smoothSolver:  Solving for omega, Initial residual = 0.0103722, Final residual = 0.000635725, No Iterations 3
smoothSolver:  Solving for k, Initial residual = 0.0928178, Final residual = 0.00547023, No Iterations 4
ExecutionTime = 0.044295 s  ClockTime = 0 s

Time = 13s

smoothSolver:  Solving for Ux, Initial residual = 0.0199603, Final residual = 0.00196484, No Iterations 4
smoothSolver:  Solving for Uy, Initial residual = 0.357662, Final residual = 0.0247948, No Iterations 3
Pressure gradient source: uncorrected Ubar = 0.977282, pressure gradient = 5.14724
GAMG:  Solving for p, Initial residual = 0.294557, Final residual = 0.027145, No Iterations 10
time step continuity errors : sum local = 0.0461393, global = 8.31109e-17, cumulative = 1.2613e-17
Pressure gradient source: uncorrected Ubar = 0.997542, pressure gradient = 3.34158
smoothSolver:  Solving for omega, Initial residual = 0.00994393, Final residual = 0.000667666, No Iterations 3
smoothSolver:  Solving for k, Initial residual = 0.0821029, Final residual = 0.0058961, No Iterations 4
ExecutionTime = 0.047075 s  ClockTime = 0 s

Time = 14s

smoothSolver:  Solving for Ux, Initial residual = 0.0179671, Final residual = 0.00116962, No Iterations 5
smoothSolver:  Solving for Uy, Initial residual = 0.34634, Final residual = 0.0264472, No Iterations 3
Pressure gradient source: uncorrected Ubar = 0.985005, pressure gradient = 4.87071
GAMG:  Solving for p, Initial residual = 0.197133, Final residual = 0.0146076, No Iterations 6
time step continuity errors : sum local = 0.0481285, global = -4.43439e-17, cumulative = -3.17309e-17
Pressure gradient source: uncorrected Ubar = 0.996803, pressure gradient = 3.66758
smoothSolver:  Solving for omega, Initial residual = 0.00862262, Final residual = 0.000729771, No Iterations 3
smoothSolver:  Solving for k, Initial residual = 0.0717124, Final residual = 0.00601899, No Iterations 4
ExecutionTime = 0.049663 s  ClockTime = 0 s

Time = 15s

smoothSolver:  Solving for Ux, Initial residual = 0.0163267, Final residual = 0.00110013, No Iterations 5
smoothSolver:  Solving for Uy, Initial residual = 0.33958, Final residual = 0.0246381, No Iterations 3
Pressure gradient source: uncorrected Ubar = 1.00256, pressure gradient = 3.37318
GAMG:  Solving for p, Initial residual = 0.155517, Final residual = 0.0150848, No Iterations 9
time step continuity errors : sum local = 0.066454, global = 1.546e-17, cumulative = -1.62709e-17
Pressure gradient source: uncorrected Ubar = 0.998991, pressure gradient = 3.78355
smoothSolver:  Solving for omega, Initial residual = 0.00774517, Final residual = 0.000435434, No Iterations 4
smoothSolver:  Solving for k, Initial residual = 0.0624763, Final residual = 0.00577961, No Iterations 4
ExecutionTime = 0.052402 s  ClockTime = 0 s

Time = 16s

smoothSolver:  Solving for Ux, Initial residual = 0.0146766, Final residual = 0.00104039, No Iterations 5
smoothSolver:  Solving for Uy, Initial residual = 0.250342, Final residual = 0.0183172, No Iterations 3
Pressure gradient source: uncorrected Ubar = 1.00582, pressure gradient = 3.03223
GAMG:  Solving for p, Initial residual = 0.128895, Final residual = 0.00906617, No Iterations 8
time step continuity errors : sum local = 0.0487171, global = -6.14743e-17, cumulative = -7.77451e-17
Pressure gradient source: uncorrected Ubar = 0.999989, pressure gradient = 3.78496
smoothSolver:  Solving for omega, Initial residual = 0.00715893, Final residual = 0.000477958, No Iterations 4
smoothSolver:  Solving for k, Initial residual = 0.0557509, Final residual = 0.00336136, No Iterations 5
ExecutionTime = 0.055122 s  ClockTime = 0 s

Time = 17s

smoothSolver:  Solving for Ux, Initial residual = 0.0136497, Final residual = 0.000987363, No Iterations 5
smoothSolver:  Solving for Uy, Initial residual = 0.203385, Final residual = 0.0181474, No Iterations 3
Pressure gradient source: uncorrected Ubar = 1.00011, pressure gradient = 3.76869
GAMG:  Solving for p, Initial residual = 0.116865, Final residual = 0.0096599, No Iterations 8
time step continuity errors : sum local = 0.0491063, global = 1.50145e-17, cumulative = -6.27306e-17
Pressure gradient source: uncorrected Ubar = 0.998994, pressure gradient = 3.92803
smoothSolver:  Solving for omega, Initial residual = 0.00670939, Final residual = 0.0005061, No Iterations 4
smoothSolver:  Solving for k, Initial residual = 0.0504412, Final residual = 0.0036728, No Iterations 5
ExecutionTime = 0.057882 s  ClockTime = 0 s

Time = 18s

smoothSolver:  Solving for Ux, Initial residual = 0.0128893, Final residual = 0.000955632, No Iterations 5
smoothSolver:  Solving for Uy, Initial residual = 0.221598, Final residual = 0.0190621, No Iterations 3
Pressure gradient source: uncorrected Ubar = 1.00637, pressure gradient = 2.95424
GAMG:  Solving for p, Initial residual = 0.119303, Final residual = 0.0118654, No Iterations 9
time step continuity errors : sum local = 0.0409505, global = -4.43473e-17, cumulative = -1.07078e-16
Pressure gradient source: uncorrected Ubar = 1.00092, pressure gradient = 3.78671
smoothSolver:  Solving for omega, Initial residual = 0.00674324, Final residual = 0.000531537, No Iterations 4
smoothSolver:  Solving for k, Initial residual = 0.0445728, Final residual = 0.00347969, No Iterations 5
ExecutionTime = 0.060637 s  ClockTime = 0 s

Time = 19s

smoothSolver:  Solving for Ux, Initial residual = 0.0121207, Final residual = 0.000911406, No Iterations 5
smoothSolver:  Solving for Uy, Initial residual = 0.2051, Final residual = 0.0204854, No Iterations 3
Pressure gradient source: uncorrected Ubar = 1.00157, pressure gradient = 3.52989
GAMG:  Solving for p, Initial residual = 0.146513, Final residual = 0.0140879, No Iterations 11
time step continuity errors : sum local = 0.031222, global = 4.80708e-17, cumulative = -5.90071e-17
Pressure gradient source: uncorrected Ubar = 1.00033, pressure gradient = 3.73314
smoothSolver:  Solving for omega, Initial residual = 0.00663601, Final residual = 0.000553968, No Iterations 4
smoothSolver:  Solving for k, Initial residual = 0.0401004, Final residual = 0.00334379, No Iterations 5
ExecutionTime = 0.063692 s  ClockTime = 0 s

Time = 20s

smoothSolver:  Solving for Ux, Initial residual = 0.0115095, Final residual = 0.000874884, No Iterations 5
smoothSolver:  Solving for Uy, Initial residual = 0.17543, Final residual = 0.0106606, No Iterations 4
Pressure gradient source: uncorrected Ubar = 1.00212, pressure gradient = 3.35652
GAMG:  Solving for p, Initial residual = 0.0745305, Final residual = 0.00705548, No Iterations 11
time step continuity errors : sum local = 0.0304088, global = 1.01007e-16, cumulative = 4.19999e-17
Pressure gradient source: uncorrected Ubar = 1.00017, pressure gradient = 3.70356
smoothSolver:  Solving for omega, Initial residual = 0.00649395, Final residual = 0.000572012, No Iterations 4
smoothSolver:  Solving for k, Initial residual = 0.0367048, Final residual = 0.00329428, No Iterations 5
ExecutionTime = 0.066732 s  ClockTime = 0 s

Time = 21s

smoothSolver:  Solving for Ux, Initial residual = 0.0109614, Final residual = 0.00084233, No Iterations 5
smoothSolver:  Solving for Uy, Initial residual = 0.168653, Final residual = 0.0103907, No Iterations 4
Pressure gradient source: uncorrected Ubar = 1.00327, pressure gradient = 3.07873
GAMG:  Solving for p, Initial residual = 0.0400009, Final residual = 0.00335212, No Iterations 11
time step continuity errors : sum local = 0.0243554, global = -4.65089e-17, cumulative = -4.50896e-18
Pressure gradient source: uncorrected Ubar = 1.00058, pressure gradient = 3.59351
smoothSolver:  Solving for omega, Initial residual = 0.00594952, Final residual = 0.000567025, No Iterations 4
smoothSolver:  Solving for k, Initial residual = 0.0335799, Final residual = 0.00316626, No Iterations 5
ExecutionTime = 0.06959 s  ClockTime = 0 s

Time = 22s

smoothSolver:  Solving for Ux, Initial residual = 0.0104709, Final residual = 0.000812395, No Iterations 5
smoothSolver:  Solving for Uy, Initial residual = 0.153247, Final residual = 0.0101402, No Iterations 4
Pressure gradient source: uncorrected Ubar = 1.00284, pressure gradient = 3.01366
GAMG:  Solving for p, Initial residual = 0.0274226, Final residual = 0.00260173, No Iterations 11
time step continuity errors : sum local = 0.0237703, global = 3.75134e-17, cumulative = 3.30044e-17
Pressure gradient source: uncorrected Ubar = 1.00045, pressure gradient = 3.50182
smoothSolver:  Solving for omega, Initial residual = 0.00565582, Final residual = 0.000561347, No Iterations 4
smoothSolver:  Solving for k, Initial residual = 0.030406, Final residual = 0.00293981, No Iterations 5
ExecutionTime = 0.072426 s  ClockTime = 0 s

Time = 23s

smoothSolver:  Solving for Ux, Initial residual = 0.0100376, Final residual = 0.000785833, No Iterations 5
smoothSolver:  Solving for Uy, Initial residual = 0.125766, Final residual = 0.00952104, No Iterations 4
Pressure gradient source: uncorrected Ubar = 1.00385, pressure gradient = 2.66688
GAMG:  Solving for p, Initial residual = 0.0208336, Final residual = 0.00187617, No Iterations 11
time step continuity errors : sum local = 0.0199032, global = 4.57546e-17, cumulative = 7.8759e-17
Pressure gradient source: uncorrected Ubar = 1.00063, pressure gradient = 3.36465
smoothSolver:  Solving for omega, Initial residual = 0.00542263, Final residual = 0.000343705, No Iterations 5
smoothSolver:  Solving for k, Initial residual = 0.0278891, Final residual = 0.00277261, No Iterations 5
ExecutionTime = 0.075306 s  ClockTime = 0 s

Time = 24s

smoothSolver:  Solving for Ux, Initial residual = 0.00964611, Final residual = 0.000761342, No Iterations 5
smoothSolver:  Solving for Uy, Initial residual = 0.119403, Final residual = 0.0094296, No Iterations 4
Pressure gradient source: uncorrected Ubar = 1.00351, pressure gradient = 2.5617
GAMG:  Solving for p, Initial residual = 0.0148664, Final residual = 0.00137066, No Iterations 11
time step continuity errors : sum local = 0.0158594, global = -1.84319e-17, cumulative = 6.03272e-17
Pressure gradient source: uncorrected Ubar = 1.00054, pressure gradient = 3.24073
smoothSolver:  Solving for omega, Initial residual = 0.00482639, Final residual = 0.000333418, No Iterations 5
smoothSolver:  Solving for k, Initial residual = 0.0259031, Final residual = 0.00171777, No Iterations 6
ExecutionTime = 0.078186 s  ClockTime = 0 s

Time = 25s

smoothSolver:  Solving for Ux, Initial residual = 0.00929127, Final residual = 0.000738782, No Iterations 5
smoothSolver:  Solving for Uy, Initial residual = 0.116681, Final residual = 0.0096929, No Iterations 4
Pressure gradient source: uncorrected Ubar = 1.00391, pressure gradient = 2.29718
GAMG:  Solving for p, Initial residual = 0.0096483, Final residual = 0.000817988, No Iterations 13
time step continuity errors : sum local = 0.00991666, global = -3.75134e-17, cumulative = 2.28138e-17
Pressure gradient source: uncorrected Ubar = 1.00052, pressure gradient = 3.11624
smoothSolver:  Solving for omega, Initial residual = 0.00452496, Final residual = 0.000327469, No Iterations 5
smoothSolver:  Solving for k, Initial residual = 0.0238123, Final residual = 0.00160355, No Iterations 6
ExecutionTime = 0.08134 s  ClockTime = 0 s

Time = 26s

smoothSolver:  Solving for Ux, Initial residual = 0.00897026, Final residual = 0.000718952, No Iterations 5
smoothSolver:  Solving for Uy, Initial residual = 0.103223, Final residual = 0.00945594, No Iterations 4
Pressure gradient source: uncorrected Ubar = 1.00414, pressure gradient = 2.06774
GAMG:  Solving for p, Initial residual = 0.00726777, Final residual = 0.000578572, No Iterations 13
time step continuity errors : sum local = 0.00703395, global = 5.09575e-18, cumulative = 2.79095e-17
Pressure gradient source: uncorrected Ubar = 1.00051, pressure gradient = 2.98668
smoothSolver:  Solving for omega, Initial residual = 0.00401117, Final residual = 0.000321165, No Iterations 5
smoothSolver:  Solving for k, Initial residual = 0.0220623, Final residual = 0.00152696, No Iterations 6
ExecutionTime = 0.084385 s  ClockTime = 0 s

Time = 27s

smoothSolver:  Solving for Ux, Initial residual = 0.00868517, Final residual = 0.000700813, No Iterations 5
smoothSolver:  Solving for Uy, Initial residual = 0.083312, Final residual = 0.00524685, No Iterations 5
Pressure gradient source: uncorrected Ubar = 1.00322, pressure gradient = 2.12998
GAMG:  Solving for p, Initial residual = 0.00632853, Final residual = 0.000526136, No Iterations 11
time step continuity errors : sum local = 0.00587639, global = 1.3445e-17, cumulative = 4.13545e-17
Pressure gradient source: uncorrected Ubar = 1.00036, pressure gradient = 2.89196
smoothSolver:  Solving for omega, Initial residual = 0.00373676, Final residual = 0.000316341, No Iterations 5
smoothSolver:  Solving for k, Initial residual = 0.0205461, Final residual = 0.00145767, No Iterations 6
ExecutionTime = 0.08727 s  ClockTime = 0 s

Time = 28s

smoothSolver:  Solving for Ux, Initial residual = 0.00841758, Final residual = 0.000683216, No Iterations 5
smoothSolver:  Solving for Uy, Initial residual = 0.0716995, Final residual = 0.00468122, No Iterations 5
Pressure gradient source: uncorrected Ubar = 1.00253, pressure gradient = 2.18537
GAMG:  Solving for p, Initial residual = 0.00528511, Final residual = 0.0004, No Iterations 8
time step continuity errors : sum local = 0.00406193, global = -6.18548e-17, cumulative = -2.05003e-17
Pressure gradient source: uncorrected Ubar = 1.00026, pressure gradient = 2.8195
smoothSolver:  Solving for omega, Initial residual = 0.00348539, Final residual = 0.000311066, No Iterations 5
smoothSolver:  Solving for k, Initial residual = 0.019186, Final residual = 0.00139624, No Iterations 6
ExecutionTime = 0.090037 s  ClockTime = 0 s

Time = 29s

smoothSolver:  Solving for Ux, Initial residual = 0.00816856, Final residual = 0.00066761, No Iterations 5
smoothSolver:  Solving for Uy, Initial residual = 0.0636139, Final residual = 0.00420817, No Iterations 5
Pressure gradient source: uncorrected Ubar = 1.00213, pressure gradient = 2.19591
GAMG:  Solving for p, Initial residual = 0.00449395, Final residual = 0.000267078, No Iterations 5
time step continuity errors : sum local = 0.00238631, global = 9.28617e-17, cumulative = 7.23614e-17
Pressure gradient source: uncorrected Ubar = 1.0002, pressure gradient = 2.76039
smoothSolver:  Solving for omega, Initial residual = 0.00323896, Final residual = 0.000301742, No Iterations 5
smoothSolver:  Solving for k, Initial residual = 0.0178491, Final residual = 0.00131956, No Iterations 6
ExecutionTime = 0.092636 s  ClockTime = 0 s

Time = 30s

smoothSolver:  Solving for Ux, Initial residual = 0.00795208, Final residual = 0.000650036, No Iterations 5
smoothSolver:  Solving for Uy, Initial residual = 0.0540238, Final residual = 0.00363479, No Iterations 5
Pressure gradient source: uncorrected Ubar = 1.00164, pressure gradient = 2.25551
GAMG:  Solving for p, Initial residual = 0.00410063, Final residual = 0.000279778, No Iterations 5
time step continuity errors : sum local = 0.00174243, global = 2.56956e-17, cumulative = 9.8057e-17
Pressure gradient source: uncorrected Ubar = 1.00013, pressure gradient = 2.7214
smoothSolver:  Solving for omega, Initial residual = 0.00306016, Final residual = 0.000288511, No Iterations 5
smoothSolver:  Solving for k, Initial residual = 0.0164616, Final residual = 0.00123217, No Iterations 6
ExecutionTime = 0.095263 s  ClockTime = 0 s

Time = 31s

smoothSolver:  Solving for Ux, Initial residual = 0.00771956, Final residual = 0.000626224, No Iterations 5
smoothSolver:  Solving for Uy, Initial residual = 0.0493607, Final residual = 0.00353796, No Iterations 5
Pressure gradient source: uncorrected Ubar = 1.00143, pressure gradient = 2.26064
GAMG:  Solving for p, Initial residual = 0.00372573, Final residual = 0.000251871, No Iterations 4
time step continuity errors : sum local = 0.0017265, global = 4.07661e-17, cumulative = 1.38823e-16
Pressure gradient source: uncorrected Ubar = 1.0001, pressure gradient = 2.68993
smoothSolver:  Solving for omega, Initial residual = 0.00292177, Final residual = 0.00028607, No Iterations 5
smoothSolver:  Solving for k, Initial residual = 0.0148695, Final residual = 0.00112191, No Iterations 6
ExecutionTime = 0.097806 s  ClockTime = 0 s

Time = 32s

smoothSolver:  Solving for Ux, Initial residual = 0.00743358, Final residual = 0.000602383, No Iterations 5
smoothSolver:  Solving for Uy, Initial residual = 0.0441071, Final residual = 0.00351959, No Iterations 5
Pressure gradient source: uncorrected Ubar = 1.00067, pressure gradient = 2.46283
GAMG:  Solving for p, Initial residual = 0.00329624, Final residual = 0.000273013, No Iterations 6
time step continuity errors : sum local = 0.00187895, global = -1.87567e-17, cumulative = 1.20066e-16
Pressure gradient source: uncorrected Ubar = 0.999999, pressure gradient = 2.69023
smoothSolver:  Solving for omega, Initial residual = 0.00271938, Final residual = 0.000179178, No Iterations 6
smoothSolver:  Solving for k, Initial residual = 0.0134228, Final residual = 0.0010235, No Iterations 6
ExecutionTime = 0.10045 s  ClockTime = 0 s

Time = 33s

smoothSolver:  Solving for Ux, Initial residual = 0.00714937, Final residual = 0.000579314, No Iterations 5
smoothSolver:  Solving for Uy, Initial residual = 0.0393681, Final residual = 0.00351166, No Iterations 5
Pressure gradient source: uncorrected Ubar = 1.0006, pressure gradient = 2.47771
GAMG:  Solving for p, Initial residual = 0.00294928, Final residual = 0.000259786, No Iterations 8
time step continuity errors : sum local = 0.00172743, global = -5.33959e-18, cumulative = 1.14727e-16
Pressure gradient source: uncorrected Ubar = 0.999989, pressure gradient = 2.69415
smoothSolver:  Solving for omega, Initial residual = 0.00259537, Final residual = 0.000168581, No Iterations 6
smoothSolver:  Solving for k, Initial residual = 0.0120736, Final residual = 0.000923139, No Iterations 6
ExecutionTime = 0.103186 s  ClockTime = 0 s

Time = 34s

smoothSolver:  Solving for Ux, Initial residual = 0.00688683, Final residual = 0.000558199, No Iterations 5
smoothSolver:  Solving for Uy, Initial residual = 0.0353899, Final residual = 0.00339198, No Iterations 5
Pressure gradient source: uncorrected Ubar = 1.0003, pressure gradient = 2.58183
GAMG:  Solving for p, Initial residual = 0.00256771, Final residual = 0.000229419, No Iterations 8
time step continuity errors : sum local = 0.00142116, global = 3.06557e-17, cumulative = 1.45383e-16
Pressure gradient source: uncorrected Ubar = 0.999952, pressure gradient = 2.71174
smoothSolver:  Solving for omega, Initial residual = 0.00246207, Final residual = 0.000167068, No Iterations 6
smoothSolver:  Solving for k, Initial residual = 0.0108301, Final residual = 0.000827854, No Iterations 6
ExecutionTime = 0.105968 s  ClockTime = 0 s

Time = 35s

smoothSolver:  Solving for Ux, Initial residual = 0.00665266, Final residual = 0.000539614, No Iterations 5
smoothSolver:  Solving for Uy, Initial residual = 0.032219, Final residual = 0.00207758, No Iterations 6
Pressure gradient source: uncorrected Ubar = 1.00028, pressure gradient = 2.60457
GAMG:  Solving for p, Initial residual = 0.00218456, Final residual = 0.000215986, No Iterations 8
time step continuity errors : sum local = 0.00118199, global = -5.52537e-17, cumulative = 9.01289e-17
Pressure gradient source: uncorrected Ubar = 0.999947, pressure gradient = 2.73202
smoothSolver:  Solving for omega, Initial residual = 0.00232504, Final residual = 0.000155374, No Iterations 6
smoothSolver:  Solving for k, Initial residual = 0.00980828, Final residual = 0.000752614, No Iterations 6
ExecutionTime = 0.108712 s  ClockTime = 0 s

Time = 36s

smoothSolver:  Solving for Ux, Initial residual = 0.00643885, Final residual = 0.000522863, No Iterations 5
smoothSolver:  Solving for Uy, Initial residual = 0.0296314, Final residual = 0.00197873, No Iterations 6
Pressure gradient source: uncorrected Ubar = 1.00023, pressure gradient = 2.64083
GAMG:  Solving for p, Initial residual = 0.00188019, Final residual = 0.000171513, No Iterations 18
time step continuity errors : sum local = 0.000860982, global = 2.6834e-17, cumulative = 1.16963e-16
Pressure gradient source: uncorrected Ubar = 0.999942, pressure gradient = 2.75507
smoothSolver:  Solving for omega, Initial residual = 0.00223477, Final residual = 0.000157721, No Iterations 6
smoothSolver:  Solving for k, Initial residual = 0.00897434, Final residual = 0.000685999, No Iterations 6
ExecutionTime = 0.111937 s  ClockTime = 0 s

Time = 37s

smoothSolver:  Solving for Ux, Initial residual = 0.00624691, Final residual = 0.000508179, No Iterations 5
smoothSolver:  Solving for Uy, Initial residual = 0.0272006, Final residual = 0.00183759, No Iterations 6
Pressure gradient source: uncorrected Ubar = 1.00039, pressure gradient = 2.59412
GAMG:  Solving for p, Initial residual = 0.00160659, Final residual = 0.000150263, No Iterations 20
time step continuity errors : sum local = 0.00069781, global = -8.40204e-19, cumulative = 1.16123e-16
Pressure gradient source: uncorrected Ubar = 0.999965, pressure gradient = 2.76958
smoothSolver:  Solving for omega, Initial residual = 0.00210729, Final residual = 0.000146403, No Iterations 6
smoothSolver:  Solving for k, Initial residual = 0.00835648, Final residual = 0.000630842, No Iterations 6
ExecutionTime = 0.115268 s  ClockTime = 0 s

Time = 38s

smoothSolver:  Solving for Ux, Initial residual = 0.00607039, Final residual = 0.000494751, No Iterations 5
smoothSolver:  Solving for Uy, Initial residual = 0.0271292, Final residual = 0.00183827, No Iterations 6
Pressure gradient source: uncorrected Ubar = 1.00038, pressure gradient = 2.6044
GAMG:  Solving for p, Initial residual = 0.00149671, Final residual = 0.000135935, No Iterations 20
time step continuity errors : sum local = 0.000582202, global = 2.08709e-17, cumulative = 1.36994e-16
Pressure gradient source: uncorrected Ubar = 0.999965, pressure gradient = 2.78455
smoothSolver:  Solving for omega, Initial residual = 0.00202513, Final residual = 0.000141607, No Iterations 6
smoothSolver:  Solving for k, Initial residual = 0.00791358, Final residual = 0.000581822, No Iterations 6
ExecutionTime = 0.118554 s  ClockTime = 0 s

Time = 39s

smoothSolver:  Solving for Ux, Initial residual = 0.00591092, Final residual = 0.000483335, No Iterations 5
smoothSolver:  Solving for Uy, Initial residual = 0.0272334, Final residual = 0.00183815, No Iterations 6
Pressure gradient source: uncorrected Ubar = 1.00048, pressure gradient = 2.57163
GAMG:  Solving for p, Initial residual = 0.00136121, Final residual = 0.000124578, No Iterations 18
time step continuity errors : sum local = 0.000491518, global = -3.34747e-17, cumulative = 1.03519e-16
Pressure gradient source: uncorrected Ubar = 0.99998, pressure gradient = 2.79362
smoothSolver:  Solving for omega, Initial residual = 0.00194139, Final residual = 0.000137675, No Iterations 6
smoothSolver:  Solving for k, Initial residual = 0.00760723, Final residual = 0.000554579, No Iterations 6
ExecutionTime = 0.121771 s  ClockTime = 0 s

Time = 40s

smoothSolver:  Solving for Ux, Initial residual = 0.00576365, Final residual = 0.000473091, No Iterations 5
smoothSolver:  Solving for Uy, Initial residual = 0.026898, Final residual = 0.00181441, No Iterations 6
Pressure gradient source: uncorrected Ubar = 1.00043, pressure gradient = 2.59342
GAMG:  Solving for p, Initial residual = 0.0013063, Final residual = 0.000129464, No Iterations 14
time step continuity errors : sum local = 0.000457609, global = 6.17995e-18, cumulative = 1.09699e-16
Pressure gradient source: uncorrected Ubar = 0.999976, pressure gradient = 2.80446
smoothSolver:  Solving for omega, Initial residual = 0.00186484, Final residual = 0.000133129, No Iterations 6
smoothSolver:  Solving for k, Initial residual = 0.00739782, Final residual = 0.0005416, No Iterations 6
ExecutionTime = 0.124808 s  ClockTime = 0 s

Time = 41s

smoothSolver:  Solving for Ux, Initial residual = 0.00562669, Final residual = 0.00046363, No Iterations 5
smoothSolver:  Solving for Uy, Initial residual = 0.0264228, Final residual = 0.00177892, No Iterations 6
Pressure gradient source: uncorrected Ubar = 1.00042, pressure gradient = 2.60245
GAMG:  Solving for p, Initial residual = 0.00114117, Final residual = 9.6728e-05, No Iterations 11
time step continuity errors : sum local = 0.000329476, global = -2.32019e-17, cumulative = 8.64968e-17
Pressure gradient source: uncorrected Ubar = 0.999977, pressure gradient = 2.81547
smoothSolver:  Solving for omega, Initial residual = 0.0017952, Final residual = 0.000128115, No Iterations 6
smoothSolver:  Solving for k, Initial residual = 0.0072541, Final residual = 0.000536643, No Iterations 6
ExecutionTime = 0.127695 s  ClockTime = 0 s

Time = 42s

smoothSolver:  Solving for Ux, Initial residual = 0.00549917, Final residual = 0.000454593, No Iterations 5
smoothSolver:  Solving for Uy, Initial residual = 0.0261547, Final residual = 0.00173135, No Iterations 6
Pressure gradient source: uncorrected Ubar = 1.00041, pressure gradient = 2.61618
GAMG:  Solving for p, Initial residual = 0.00109464, Final residual = 0.000108332, No Iterations 10
time step continuity errors : sum local = 0.000309874, global = 8.75509e-18, cumulative = 9.52519e-17
Pressure gradient source: uncorrected Ubar = 0.999976, pressure gradient = 2.82726
smoothSolver:  Solving for omega, Initial residual = 0.00173745, Final residual = 0.000125911, No Iterations 6
smoothSolver:  Solving for k, Initial residual = 0.00719598, Final residual = 0.000538686, No Iterations 6
ExecutionTime = 0.130541 s  ClockTime = 0 s

Time = 43s

smoothSolver:  Solving for Ux, Initial residual = 0.00538036, Final residual = 0.000446745, No Iterations 5
smoothSolver:  Solving for Uy, Initial residual = 0.0255507, Final residual = 0.00165216, No Iterations 6
Pressure gradient source: uncorrected Ubar = 1.00029, pressure gradient = 2.68179
GAMG:  Solving for p, Initial residual = 0.00101551, Final residual = 9.30835e-05, No Iterations 11
time step continuity errors : sum local = 0.000260835, global = -2.16027e-17, cumulative = 7.36492e-17
Pressure gradient source: uncorrected Ubar = 0.999961, pressure gradient = 2.84698
smoothSolver:  Solving for omega, Initial residual = 0.0016684, Final residual = 0.000120552, No Iterations 6
smoothSolver:  Solving for k, Initial residual = 0.00710643, Final residual = 0.000536728, No Iterations 6
ExecutionTime = 0.133448 s  ClockTime = 0 s

Time = 44s

smoothSolver:  Solving for Ux, Initial residual = 0.00526596, Final residual = 0.00043924, No Iterations 5
smoothSolver:  Solving for Uy, Initial residual = 0.0253654, Final residual = 0.00249444, No Iterations 5
Pressure gradient source: uncorrected Ubar = 1.00018, pressure gradient = 2.75157
GAMG:  Solving for p, Initial residual = 0.000984925, Final residual = 8.98634e-05, No Iterations 10
time step continuity errors : sum local = 0.000226171, global = -1.38371e-17, cumulative = 5.98121e-17
Pressure gradient source: uncorrected Ubar = 0.999948, pressure gradient = 2.87439
smoothSolver:  Solving for omega, Initial residual = 0.00161794, Final residual = 0.000119052, No Iterations 6
smoothSolver:  Solving for k, Initial residual = 0.0070453, Final residual = 0.000538028, No Iterations 6
ExecutionTime = 0.136278 s  ClockTime = 0 s

Time = 45s

smoothSolver:  Solving for Ux, Initial residual = 0.00515825, Final residual = 0.000431986, No Iterations 5
smoothSolver:  Solving for Uy, Initial residual = 0.0252178, Final residual = 0.00251026, No Iterations 5
Pressure gradient source: uncorrected Ubar = 1.00022, pressure gradient = 2.75407
GAMG:  Solving for p, Initial residual = 0.000876942, Final residual = 8.64376e-05, No Iterations 10
time step continuity errors : sum local = 0.00022078, global = 2.90025e-17, cumulative = 8.88146e-17
Pressure gradient source: uncorrected Ubar = 0.999955, pressure gradient = 2.89894
smoothSolver:  Solving for omega, Initial residual = 0.00155326, Final residual = 0.000113428, No Iterations 6
smoothSolver:  Solving for k, Initial residual = 0.00698109, Final residual = 0.000534103, No Iterations 6
ExecutionTime = 0.139112 s  ClockTime = 0 s

Time = 46s

smoothSolver:  Solving for Ux, Initial residual = 0.00505514, Final residual = 0.000424839, No Iterations 5
smoothSolver:  Solving for Uy, Initial residual = 0.0252075, Final residual = 0.00165093, No Iterations 6
Pressure gradient source: uncorrected Ubar = 0.999932, pressure gradient = 2.93758
GAMG:  Solving for p, Initial residual = 0.000903076, Final residual = 7.06311e-05, No Iterations 7
time step continuity errors : sum local = 0.000191454, global = -1.63308e-18, cumulative = 8.71815e-17
Pressure gradient source: uncorrected Ubar = 0.999915, pressure gradient = 2.94698
smoothSolver:  Solving for omega, Initial residual = 0.00150413, Final residual = 0.000109079, No Iterations 6
smoothSolver:  Solving for k, Initial residual = 0.00691373, Final residual = 0.000531235, No Iterations 6
ExecutionTime = 0.141819 s  ClockTime = 0 s

Time = 47s

smoothSolver:  Solving for Ux, Initial residual = 0.0049576, Final residual = 0.00041827, No Iterations 5
smoothSolver:  Solving for Uy, Initial residual = 0.024527, Final residual = 0.00165074, No Iterations 6
Pressure gradient source: uncorrected Ubar = 0.999976, pressure gradient = 2.96088
GAMG:  Solving for p, Initial residual = 0.000862593, Final residual = 6.93965e-05, No Iterations 7
time step continuity errors : sum local = 0.000178187, global = -3.38813e-20, cumulative = 8.71476e-17
Pressure gradient source: uncorrected Ubar = 0.999922, pressure gradient = 2.99295
smoothSolver:  Solving for omega, Initial residual = 0.0014504, Final residual = 0.00010559, No Iterations 6
smoothSolver:  Solving for k, Initial residual = 0.00682871, Final residual = 0.000521104, No Iterations 6
ExecutionTime = 0.144553 s  ClockTime = 0 s

Time = 48s

smoothSolver:  Solving for Ux, Initial residual = 0.00486417, Final residual = 0.000412063, No Iterations 5
smoothSolver:  Solving for Uy, Initial residual = 0.0240182, Final residual = 0.00166598, No Iterations 6
Pressure gradient source: uncorrected Ubar = 0.99978, pressure gradient = 3.12718
GAMG:  Solving for p, Initial residual = 0.000848868, Final residual = 7.28408e-05, No Iterations 7
time step continuity errors : sum local = 0.000182572, global = -3.58329e-17, cumulative = 5.13147e-17
Pressure gradient source: uncorrected Ubar = 0.999894, pressure gradient = 3.0575
smoothSolver:  Solving for omega, Initial residual = 0.00139715, Final residual = 0.00010197, No Iterations 6
smoothSolver:  Solving for k, Initial residual = 0.00678728, Final residual = 0.000520149, No Iterations 6
ExecutionTime = 0.147322 s  ClockTime = 0 s

Time = 49s

smoothSolver:  Solving for Ux, Initial residual = 0.00477202, Final residual = 0.000405627, No Iterations 5
smoothSolver:  Solving for Uy, Initial residual = 0.0240714, Final residual = 0.00169544, No Iterations 6
Pressure gradient source: uncorrected Ubar = 0.999756, pressure gradient = 3.21314
GAMG:  Solving for p, Initial residual = 0.000853971, Final residual = 8.41501e-05, No Iterations 8
time step continuity errors : sum local = 0.00018641, global = -4.22974e-17, cumulative = 9.0173e-18
Pressure gradient source: uncorrected Ubar = 0.999891, pressure gradient = 3.12725
smoothSolver:  Solving for omega, Initial residual = 0.00135051, Final residual = 0.000101063, No Iterations 6
smoothSolver:  Solving for k, Initial residual = 0.00674646, Final residual = 0.00051838, No Iterations 6
ExecutionTime = 0.150067 s  ClockTime = 0 s

Time = 50s

smoothSolver:  Solving for Ux, Initial residual = 0.00468484, Final residual = 0.000399279, No Iterations 5
smoothSolver:  Solving for Uy, Initial residual = 0.0236699, Final residual = 0.00169416, No Iterations 6
Pressure gradient source: uncorrected Ubar = 0.999744, pressure gradient = 3.29795
GAMG:  Solving for p, Initial residual = 0.000851612, Final residual = 8.2035e-05, No Iterations 12
time step continuity errors : sum local = 0.000185185, global = 1.49078e-19, cumulative = 9.16638e-18
Pressure gradient source: uncorrected Ubar = 0.99989, pressure gradient = 3.20102
smoothSolver:  Solving for omega, Initial residual = 0.00129295, Final residual = 9.44576e-05, No Iterations 6
smoothSolver:  Solving for k, Initial residual = 0.00668666, Final residual = 0.000513654, No Iterations 6
ExecutionTime = 0.153019 s  ClockTime = 0 s

Time = 51s

smoothSolver:  Solving for Ux, Initial residual = 0.0046016, Final residual = 0.000393537, No Iterations 5
smoothSolver:  Solving for Uy, Initial residual = 0.0232291, Final residual = 0.00169066, No Iterations 6
Pressure gradient source: uncorrected Ubar = 0.999791, pressure gradient = 3.34683
GAMG:  Solving for p, Initial residual = 0.000801231, Final residual = 7.80568e-05, No Iterations 14
time step continuity errors : sum local = 0.000169586, global = -5.78013e-18, cumulative = 3.38625e-18
Pressure gradient source: uncorrected Ubar = 0.999896, pressure gradient = 3.27349
smoothSolver:  Solving for omega, Initial residual = 0.00124939, Final residual = 9.24246e-05, No Iterations 6
smoothSolver:  Solving for k, Initial residual = 0.0066608, Final residual = 0.000514767, No Iterations 6
ExecutionTime = 0.156088 s  ClockTime = 0 s

Time = 52s

smoothSolver:  Solving for Ux, Initial residual = 0.00451926, Final residual = 0.000387951, No Iterations 5
smoothSolver:  Solving for Uy, Initial residual = 0.0227948, Final residual = 0.00166746, No Iterations 6
Pressure gradient source: uncorrected Ubar = 0.999829, pressure gradient = 3.39834
GAMG:  Solving for p, Initial residual = 0.000799339, Final residual = 6.97147e-05, No Iterations 16
time step continuity errors : sum local = 0.000143237, global = -2.87313e-18, cumulative = 5.13116e-19
Pressure gradient source: uncorrected Ubar = 0.999902, pressure gradient = 3.34521
smoothSolver:  Solving for omega, Initial residual = 0.00119959, Final residual = 8.86221e-05, No Iterations 6
smoothSolver:  Solving for k, Initial residual = 0.00662877, Final residual = 0.000515967, No Iterations 6
ExecutionTime = 0.159248 s  ClockTime = 0 s

Time = 53s

smoothSolver:  Solving for Ux, Initial residual = 0.00444167, Final residual = 0.000382532, No Iterations 5
smoothSolver:  Solving for Uy, Initial residual = 0.0223319, Final residual = 0.0016502, No Iterations 6
Pressure gradient source: uncorrected Ubar = 0.999889, pressure gradient = 3.43052
GAMG:  Solving for p, Initial residual = 0.000750621, Final residual = 7.01622e-05, No Iterations 16
time step continuity errors : sum local = 0.000133588, global = -8.94452e-19, cumulative = -3.81336e-19
Pressure gradient source: uncorrected Ubar = 0.999911, pressure gradient = 3.41343
smoothSolver:  Solving for omega, Initial residual = 0.00115545, Final residual = 8.62644e-05, No Iterations 6
smoothSolver:  Solving for k, Initial residual = 0.00657448, Final residual = 0.000510558, No Iterations 6
ExecutionTime = 0.162357 s  ClockTime = 0 s

Time = 54s

smoothSolver:  Solving for Ux, Initial residual = 0.0043715, Final residual = 0.000377451, No Iterations 5
smoothSolver:  Solving for Uy, Initial residual = 0.0220827, Final residual = 0.00162741, No Iterations 6
Pressure gradient source: uncorrected Ubar = 0.999997, pressure gradient = 3.41555
GAMG:  Solving for p, Initial residual = 0.000804313, Final residual = 7.52431e-05, No Iterations 20
time step continuity errors : sum local = 0.000131431, global = 3.92684e-17, cumulative = 3.88871e-17
Pressure gradient source: uncorrected Ubar = 0.999927, pressure gradient = 3.47158
smoothSolver:  Solving for omega, Initial residual = 0.00110798, Final residual = 8.18075e-05, No Iterations 6
smoothSolver:  Solving for k, Initial residual = 0.00656498, Final residual = 0.000513622, No Iterations 6
ExecutionTime = 0.165708 s  ClockTime = 0 s

Time = 55s

smoothSolver:  Solving for Ux, Initial residual = 0.00430512, Final residual = 0.00037291, No Iterations 5
smoothSolver:  Solving for Uy, Initial residual = 0.0219848, Final residual = 0.00164141, No Iterations 6
Pressure gradient source: uncorrected Ubar = 1.00004, pressure gradient = 3.44087
GAMG:  Solving for p, Initial residual = 0.000755399, Final residual = 6.98402e-05, No Iterations 22
time step continuity errors : sum local = 0.000114306, global = -1.37694e-17, cumulative = 2.51177e-17
Pressure gradient source: uncorrected Ubar = 0.999934, pressure gradient = 3.52689
smoothSolver:  Solving for omega, Initial residual = 0.00107084, Final residual = 7.82585e-05, No Iterations 6
smoothSolver:  Solving for k, Initial residual = 0.00652108, Final residual = 0.0005089, No Iterations 6
ExecutionTime = 0.16909 s  ClockTime = 0 s

Time = 56s

smoothSolver:  Solving for Ux, Initial residual = 0.00424411, Final residual = 0.000368951, No Iterations 5
smoothSolver:  Solving for Uy, Initial residual = 0.0221293, Final residual = 0.00166187, No Iterations 6
Pressure gradient source: uncorrected Ubar = 1.00013, pressure gradient = 3.41727
GAMG:  Solving for p, Initial residual = 0.000757187, Final residual = 7.26239e-05, No Iterations 22
time step continuity errors : sum local = 0.00011087, global = -9.77815e-18, cumulative = 1.53396e-17
Pressure gradient source: uncorrected Ubar = 0.999948, pressure gradient = 3.57217
smoothSolver:  Solving for omega, Initial residual = 0.00103934, Final residual = 7.71511e-05, No Iterations 6
smoothSolver:  Solving for k, Initial residual = 0.00650244, Final residual = 0.000512465, No Iterations 6
ExecutionTime = 0.172464 s  ClockTime = 0 s

Time = 57s

smoothSolver:  Solving for Ux, Initial residual = 0.00418643, Final residual = 0.000365135, No Iterations 5
smoothSolver:  Solving for Uy, Initial residual = 0.0221193, Final residual = 0.00166602, No Iterations 6
Pressure gradient source: uncorrected Ubar = 1.00019, pressure gradient = 3.40234
GAMG:  Solving for p, Initial residual = 0.000737721, Final residual = 7.34325e-05, No Iterations 22
time step continuity errors : sum local = 0.00010448, global = 2.96123e-18, cumulative = 1.83008e-17
Pressure gradient source: uncorrected Ubar = 0.999958, pressure gradient = 3.60995
smoothSolver:  Solving for omega, Initial residual = 0.00100894, Final residual = 7.44514e-05, No Iterations 6
smoothSolver:  Solving for k, Initial residual = 0.00647512, Final residual = 0.000510644, No Iterations 6
ExecutionTime = 0.175871 s  ClockTime = 0 s

Time = 58s

smoothSolver:  Solving for Ux, Initial residual = 0.00413312, Final residual = 0.000361464, No Iterations 5
smoothSolver:  Solving for Uy, Initial residual = 0.0219289, Final residual = 0.0016545, No Iterations 6
Pressure gradient source: uncorrected Ubar = 1.00024, pressure gradient = 3.3886
GAMG:  Solving for p, Initial residual = 0.000730754, Final residual = 7.28284e-05, No Iterations 22
time step continuity errors : sum local = 9.64406e-05, global = 2.59463e-17, cumulative = 4.42471e-17
Pressure gradient source: uncorrected Ubar = 0.999966, pressure gradient = 3.64137
smoothSolver:  Solving for omega, Initial residual = 0.000981084, Final residual = 7.29795e-05, No Iterations 6
smoothSolver:  Solving for k, Initial residual = 0.00644535, Final residual = 0.000510916, No Iterations 6
ExecutionTime = 0.179268 s  ClockTime = 0 s

Time = 59s

smoothSolver:  Solving for Ux, Initial residual = 0.00408187, Final residual = 0.000358128, No Iterations 5
smoothSolver:  Solving for Uy, Initial residual = 0.0214787, Final residual = 0.00162698, No Iterations 6
Pressure gradient source: uncorrected Ubar = 1.00028, pressure gradient = 3.37213
GAMG:  Solving for p, Initial residual = 0.000720382, Final residual = 7.08296e-05, No Iterations 22
time step continuity errors : sum local = 8.73057e-05, global = -1.12012e-17, cumulative = 3.3046e-17
Pressure gradient source: uncorrected Ubar = 0.999974, pressure gradient = 3.66678
smoothSolver:  Solving for omega, Initial residual = 0.000952643, Final residual = 7.01506e-05, No Iterations 6
smoothSolver:  Solving for k, Initial residual = 0.00641158, Final residual = 0.00050783, No Iterations 6
ExecutionTime = 0.182672 s  ClockTime = 0 s

Time = 60s

smoothSolver:  Solving for Ux, Initial residual = 0.00403238, Final residual = 0.00035509, No Iterations 5
smoothSolver:  Solving for Uy, Initial residual = 0.0211303, Final residual = 0.00160515, No Iterations 6
Pressure gradient source: uncorrected Ubar = 1.00032, pressure gradient = 3.34812
GAMG:  Solving for p, Initial residual = 0.000716135, Final residual = 6.91135e-05, No Iterations 22
time step continuity errors : sum local = 7.94781e-05, global = 2.968e-17, cumulative = 6.2726e-17
Pressure gradient source: uncorrected Ubar = 0.999981, pressure gradient = 3.68582
smoothSolver:  Solving for omega, Initial residual = 0.000928439, Final residual = 6.85375e-05, No Iterations 6
smoothSolver:  Solving for k, Initial residual = 0.00639315, Final residual = 0.000510542, No Iterations 6
ExecutionTime = 0.186072 s  ClockTime = 0 s

Time = 61s

smoothSolver:  Solving for Ux, Initial residual = 0.00398495, Final residual = 0.000352148, No Iterations 5
smoothSolver:  Solving for Uy, Initial residual = 0.0211809, Final residual = 0.00160552, No Iterations 6
Pressure gradient source: uncorrected Ubar = 1.00035, pressure gradient = 3.31986
GAMG:  Solving for p, Initial residual = 0.000761732, Final residual = 6.81533e-05, No Iterations 22
time step continuity errors : sum local = 7.30317e-05, global = 1.15095e-17, cumulative = 7.42355e-17
Pressure gradient source: uncorrected Ubar = 0.999988, pressure gradient = 3.69871
smoothSolver:  Solving for omega, Initial residual = 0.000905081, Final residual = 6.6574e-05, No Iterations 6
smoothSolver:  Solving for k, Initial residual = 0.00637159, Final residual = 0.000509518, No Iterations 6
ExecutionTime = 0.189513 s  ClockTime = 0 s

Time = 62s

smoothSolver:  Solving for Ux, Initial residual = 0.00394079, Final residual = 0.000349255, No Iterations 5
smoothSolver:  Solving for Uy, Initial residual = 0.0212184, Final residual = 0.00161575, No Iterations 6
Pressure gradient source: uncorrected Ubar = 1.00038, pressure gradient = 3.29375
GAMG:  Solving for p, Initial residual = 0.000747002, Final residual = 6.59897e-05, No Iterations 22
time step continuity errors : sum local = 6.61784e-05, global = -1.32747e-17, cumulative = 6.09608e-17
Pressure gradient source: uncorrected Ubar = 0.999993, pressure gradient = 3.70648
smoothSolver:  Solving for omega, Initial residual = 0.000882152, Final residual = 6.48223e-05, No Iterations 6
smoothSolver:  Solving for k, Initial residual = 0.00632833, Final residual = 0.000506991, No Iterations 6
ExecutionTime = 0.193119 s  ClockTime = 0 s

Time = 63s

smoothSolver:  Solving for Ux, Initial residual = 0.00389788, Final residual = 0.000346408, No Iterations 5
smoothSolver:  Solving for Uy, Initial residual = 0.0209809, Final residual = 0.00160501, No Iterations 6
Pressure gradient source: uncorrected Ubar = 1.00039, pressure gradient = 3.273
GAMG:  Solving for p, Initial residual = 0.00072083, Final residual = 6.41768e-05, No Iterations 22
time step continuity errors : sum local = 5.98287e-05, global = 1.83637e-18, cumulative = 6.27971e-17
Pressure gradient source: uncorrected Ubar = 0.999996, pressure gradient = 3.71052
smoothSolver:  Solving for omega, Initial residual = 0.000863438, Final residual = 6.43244e-05, No Iterations 6
smoothSolver:  Solving for k, Initial residual = 0.00630332, Final residual = 0.000504757, No Iterations 6
ExecutionTime = 0.196495 s  ClockTime = 0 s

Time = 64s

smoothSolver:  Solving for Ux, Initial residual = 0.00385592, Final residual = 0.000343872, No Iterations 5
smoothSolver:  Solving for Uy, Initial residual = 0.0205804, Final residual = 0.00157826, No Iterations 6
Pressure gradient source: uncorrected Ubar = 1.00041, pressure gradient = 3.24806
GAMG:  Solving for p, Initial residual = 0.000736963, Final residual = 7.23572e-05, No Iterations 20
time step continuity errors : sum local = 6.22144e-05, global = 1.43928e-17, cumulative = 7.71899e-17
Pressure gradient source: uncorrected Ubar = 1, pressure gradient = 3.7107
smoothSolver:  Solving for omega, Initial residual = 0.000843504, Final residual = 6.26755e-05, No Iterations 6
smoothSolver:  Solving for k, Initial residual = 0.00626883, Final residual = 0.00050465, No Iterations 6
ExecutionTime = 0.199776 s  ClockTime = 0 s

Time = 65s

smoothSolver:  Solving for Ux, Initial residual = 0.00381507, Final residual = 0.000341455, No Iterations 5
smoothSolver:  Solving for Uy, Initial residual = 0.0203756, Final residual = 0.00156762, No Iterations 6
Pressure gradient source: uncorrected Ubar = 1.00042, pressure gradient = 3.22002
GAMG:  Solving for p, Initial residual = 0.000722491, Final residual = 7.13224e-05, No Iterations 20
time step continuity errors : sum local = 5.72951e-05, global = 5.42777e-18, cumulative = 8.26177e-17
Pressure gradient source: uncorrected Ubar = 1, pressure gradient = 3.70699
smoothSolver:  Solving for omega, Initial residual = 0.000824508, Final residual = 6.12745e-05, No Iterations 6
smoothSolver:  Solving for k, Initial residual = 0.00623322, Final residual = 0.000501556, No Iterations 6
ExecutionTime = 0.203093 s  ClockTime = 0 s

Time = 66s

smoothSolver:  Solving for Ux, Initial residual = 0.00377556, Final residual = 0.000339096, No Iterations 5
smoothSolver:  Solving for Uy, Initial residual = 0.0200278, Final residual = 0.00154442, No Iterations 6
Pressure gradient source: uncorrected Ubar = 1.00043, pressure gradient = 3.20089
GAMG:  Solving for p, Initial residual = 0.000744235, Final residual = 6.66458e-05, No Iterations 20
time step continuity errors : sum local = 4.98927e-05, global = 1.95902e-17, cumulative = 1.02208e-16
Pressure gradient source: uncorrected Ubar = 1, pressure gradient = 3.70128
smoothSolver:  Solving for omega, Initial residual = 0.000808915, Final residual = 6.05569e-05, No Iterations 6
smoothSolver:  Solving for k, Initial residual = 0.00620817, Final residual = 0.000502967, No Iterations 6
ExecutionTime = 0.206394 s  ClockTime = 0 s

Time = 67s

smoothSolver:  Solving for Ux, Initial residual = 0.00373822, Final residual = 0.000336635, No Iterations 5
smoothSolver:  Solving for Uy, Initial residual = 0.0194989, Final residual = 0.00150235, No Iterations 6
Pressure gradient source: uncorrected Ubar = 1.00044, pressure gradient = 3.16813
GAMG:  Solving for p, Initial residual = 0.000830274, Final residual = 8.24002e-05, No Iterations 16
time step continuity errors : sum local = 5.5878e-05, global = -1.53008e-17, cumulative = 8.69071e-17
Pressure gradient source: uncorrected Ubar = 1.00001, pressure gradient = 3.69167
smoothSolver:  Solving for omega, Initial residual = 0.000791141, Final residual = 5.81567e-05, No Iterations 6
smoothSolver:  Solving for k, Initial residual = 0.00617819, Final residual = 0.000500223, No Iterations 6
ExecutionTime = 0.209512 s  ClockTime = 0 s

Time = 68s

smoothSolver:  Solving for Ux, Initial residual = 0.00370265, Final residual = 0.000334304, No Iterations 5
smoothSolver:  Solving for Uy, Initial residual = 0.0192888, Final residual = 0.00149217, No Iterations 6
Pressure gradient source: uncorrected Ubar = 1.00045, pressure gradient = 3.13461
GAMG:  Solving for p, Initial residual = 0.000798714, Final residual = 7.34921e-05, No Iterations 16
time step continuity errors : sum local = 4.69501e-05, global = -6.04104e-17, cumulative = 2.64967e-17
Pressure gradient source: uncorrected Ubar = 1.00001, pressure gradient = 3.67855
smoothSolver:  Solving for omega, Initial residual = 0.000777068, Final residual = 5.81001e-05, No Iterations 6
smoothSolver:  Solving for k, Initial residual = 0.00615266, Final residual = 0.000500738, No Iterations 6
ExecutionTime = 0.212654 s  ClockTime = 0 s

Time = 69s

smoothSolver:  Solving for Ux, Initial residual = 0.0036674, Final residual = 0.00033223, No Iterations 5
smoothSolver:  Solving for Uy, Initial residual = 0.0190127, Final residual = 0.00147778, No Iterations 6
Pressure gradient source: uncorrected Ubar = 1.00045, pressure gradient = 3.11266
GAMG:  Solving for p, Initial residual = 0.000798141, Final residual = 7.71297e-05, No Iterations 13
time step continuity errors : sum local = 4.69277e-05, global = 3.34612e-17, cumulative = 5.99579e-17
Pressure gradient source: uncorrected Ubar = 1.00001, pressure gradient = 3.66423
smoothSolver:  Solving for omega, Initial residual = 0.000762438, Final residual = 5.72645e-05, No Iterations 6
smoothSolver:  Solving for k, Initial residual = 0.00611695, Final residual = 0.000497868, No Iterations 6
ExecutionTime = 0.215633 s  ClockTime = 0 s

Time = 70s

smoothSolver:  Solving for Ux, Initial residual = 0.00363307, Final residual = 0.000330216, No Iterations 5
smoothSolver:  Solving for Uy, Initial residual = 0.0188531, Final residual = 0.00146327, No Iterations 6
Pressure gradient source: uncorrected Ubar = 1.00045, pressure gradient = 3.08637
GAMG:  Solving for p, Initial residual = 0.000794266, Final residual = 7.79138e-05, No Iterations 13
time step continuity errors : sum local = 4.41765e-05, global = 1.40336e-17, cumulative = 7.39915e-17
Pressure gradient source: uncorrected Ubar = 1.00001, pressure gradient = 3.6481
smoothSolver:  Solving for omega, Initial residual = 0.000747502, Final residual = 5.55892e-05, No Iterations 6
smoothSolver:  Solving for k, Initial residual = 0.00607675, Final residual = 0.000496204, No Iterations 6
ExecutionTime = 0.218626 s  ClockTime = 0 s

Time = 71s

smoothSolver:  Solving for Ux, Initial residual = 0.00359952, Final residual = 0.00032825, No Iterations 5
smoothSolver:  Solving for Uy, Initial residual = 0.0186173, Final residual = 0.00145143, No Iterations 6
Pressure gradient source: uncorrected Ubar = 1.00044, pressure gradient = 3.0609
GAMG:  Solving for p, Initial residual = 0.000798666, Final residual = 6.84635e-05, No Iterations 15
time step continuity errors : sum local = 3.59787e-05, global = 3.37458e-17, cumulative = 1.07737e-16
Pressure gradient source: uncorrected Ubar = 1.00001, pressure gradient = 3.63053
smoothSolver:  Solving for omega, Initial residual = 0.000736303, Final residual = 5.59909e-05, No Iterations 6
smoothSolver:  Solving for k, Initial residual = 0.00606013, Final residual = 0.000496181, No Iterations 6
ExecutionTime = 0.221717 s  ClockTime = 0 s

Time = 72s

smoothSolver:  Solving for Ux, Initial residual = 0.0035677, Final residual = 0.000326292, No Iterations 5
smoothSolver:  Solving for Uy, Initial residual = 0.0183168, Final residual = 0.00142788, No Iterations 6
Pressure gradient source: uncorrected Ubar = 1.00045, pressure gradient = 3.02961
GAMG:  Solving for p, Initial residual = 0.000827329, Final residual = 7.97494e-05, No Iterations 13
time step continuity errors : sum local = 3.81986e-05, global = -8.17556e-18, cumulative = 9.95617e-17
Pressure gradient source: uncorrected Ubar = 1.00001, pressure gradient = 3.61077
smoothSolver:  Solving for omega, Initial residual = 0.000721557, Final residual = 5.40057e-05, No Iterations 6
smoothSolver:  Solving for k, Initial residual = 0.00602445, Final residual = 0.000495867, No Iterations 6
ExecutionTime = 0.224713 s  ClockTime = 0 s

Time = 73s

smoothSolver:  Solving for Ux, Initial residual = 0.00353788, Final residual = 0.000324384, No Iterations 5
smoothSolver:  Solving for Uy, Initial residual = 0.018024, Final residual = 0.00141126, No Iterations 6
Pressure gradient source: uncorrected Ubar = 1.00045, pressure gradient = 2.99155
GAMG:  Solving for p, Initial residual = 0.000919574, Final residual = 8.2146e-05, No Iterations 17
time step continuity errors : sum local = 3.65639e-05, global = 2.22753e-17, cumulative = 1.21837e-16
Pressure gradient source: uncorrected Ubar = 1.00002, pressure gradient = 3.58801
smoothSolver:  Solving for omega, Initial residual = 0.000709305, Final residual = 5.38747e-05, No Iterations 6
smoothSolver:  Solving for k, Initial residual = 0.00599097, Final residual = 0.000493235, No Iterations 6
ExecutionTime = 0.227878 s  ClockTime = 0 s

Time = 74s

smoothSolver:  Solving for Ux, Initial residual = 0.00350842, Final residual = 0.00032261, No Iterations 5
smoothSolver:  Solving for Uy, Initial residual = 0.0179112, Final residual = 0.00140136, No Iterations 6
Pressure gradient source: uncorrected Ubar = 1.00044, pressure gradient = 2.96689
GAMG:  Solving for p, Initial residual = 0.000948433, Final residual = 8.21121e-05, No Iterations 17
time step continuity errors : sum local = 3.41636e-05, global = -4.33545e-17, cumulative = 7.84825e-17
Pressure gradient source: uncorrected Ubar = 1.00002, pressure gradient = 3.56489
smoothSolver:  Solving for omega, Initial residual = 0.000696523, Final residual = 5.25836e-05, No Iterations 6
smoothSolver:  Solving for k, Initial residual = 0.00595707, Final residual = 0.000492249, No Iterations 6
ExecutionTime = 0.231026 s  ClockTime = 0 s

Time = 75s

smoothSolver:  Solving for Ux, Initial residual = 0.00347968, Final residual = 0.000320972, No Iterations 5
smoothSolver:  Solving for Uy, Initial residual = 0.0177139, Final residual = 0.00138755, No Iterations 6
Pressure gradient source: uncorrected Ubar = 1.00044, pressure gradient = 2.93657
GAMG:  Solving for p, Initial residual = 0.000946857, Final residual = 8.42119e-05, No Iterations 17
time step continuity errors : sum local = 3.24867e-05, global = 2.43573e-17, cumulative = 1.0284e-16
Pressure gradient source: uncorrected Ubar = 1.00002, pressure gradient = 3.54045
smoothSolver:  Solving for omega, Initial residual = 0.000684994, Final residual = 5.21283e-05, No Iterations 6
smoothSolver:  Solving for k, Initial residual = 0.00593335, Final residual = 0.00049085, No Iterations 6
ExecutionTime = 0.234199 s  ClockTime = 0 s

Time = 76s

smoothSolver:  Solving for Ux, Initial residual = 0.00345134, Final residual = 0.000319382, No Iterations 5
smoothSolver:  Solving for Uy, Initial residual = 0.01756, Final residual = 0.00137999, No Iterations 6
Pressure gradient source: uncorrected Ubar = 1.00044, pressure gradient = 2.90384
GAMG:  Solving for p, Initial residual = 0.000956853, Final residual = 8.79084e-05, No Iterations 17
time step continuity errors : sum local = 3.13464e-05, global = 4.24092e-17, cumulative = 1.45249e-16
Pressure gradient source: uncorrected Ubar = 1.00002, pressure gradient = 3.5145
smoothSolver:  Solving for omega, Initial residual = 0.000673657, Final residual = 5.16027e-05, No Iterations 6
smoothSolver:  Solving for k, Initial residual = 0.00589387, Final residual = 0.000489198, No Iterations 6
ExecutionTime = 0.23737 s  ClockTime = 0 s

Time = 77s

smoothSolver:  Solving for Ux, Initial residual = 0.00342395, Final residual = 0.000317801, No Iterations 5
smoothSolver:  Solving for Uy, Initial residual = 0.0172865, Final residual = 0.00135988, No Iterations 6
Pressure gradient source: uncorrected Ubar = 1.00044, pressure gradient = 2.87246
GAMG:  Solving for p, Initial residual = 0.000979703, Final residual = 9.47081e-05, No Iterations 17
time step continuity errors : sum local = 3.11107e-05, global = -5.06865e-17, cumulative = 9.45625e-17
Pressure gradient source: uncorrected Ubar = 1.00002, pressure gradient = 3.48743
smoothSolver:  Solving for omega, Initial residual = 0.000661419, Final residual = 5.05531e-05, No Iterations 6
smoothSolver:  Solving for k, Initial residual = 0.00584995, Final residual = 0.000483771, No Iterations 6
ExecutionTime = 0.24052 s  ClockTime = 0 s

Time = 78s

smoothSolver:  Solving for Ux, Initial residual = 0.00339843, Final residual = 0.00031631, No Iterations 5
smoothSolver:  Solving for Uy, Initial residual = 0.0171345, Final residual = 0.00135178, No Iterations 6
Pressure gradient source: uncorrected Ubar = 1.00044, pressure gradient = 2.83834
GAMG:  Solving for p, Initial residual = 0.00100415, Final residual = 9.36636e-05, No Iterations 17
time step continuity errors : sum local = 2.87701e-05, global = -4.96802e-17, cumulative = 4.48824e-17
Pressure gradient source: uncorrected Ubar = 1.00002, pressure gradient = 3.45896
smoothSolver:  Solving for omega, Initial residual = 0.000649457, Final residual = 4.9475e-05, No Iterations 6
smoothSolver:  Solving for k, Initial residual = 0.0058101, Final residual = 0.000481231, No Iterations 6
ExecutionTime = 0.243707 s  ClockTime = 0 s

Time = 79s

smoothSolver:  Solving for Ux, Initial residual = 0.00337396, Final residual = 0.000314821, No Iterations 5
smoothSolver:  Solving for Uy, Initial residual = 0.0168766, Final residual = 0.00133248, No Iterations 6
Pressure gradient source: uncorrected Ubar = 1.00043, pressure gradient = 2.80322
GAMG:  Solving for p, Initial residual = 0.00118681, Final residual = 0.00011443, No Iterations 15
time step continuity errors : sum local = 3.13196e-05, global = -3.58295e-17, cumulative = 9.05287e-18
Pressure gradient source: uncorrected Ubar = 1.00002, pressure gradient = 3.42913
smoothSolver:  Solving for omega, Initial residual = 0.000640277, Final residual = 4.9739e-05, No Iterations 6
smoothSolver:  Solving for k, Initial residual = 0.00578466, Final residual = 0.000478255, No Iterations 6
ExecutionTime = 0.246778 s  ClockTime = 0 s

Time = 80s

smoothSolver:  Solving for Ux, Initial residual = 0.00335009, Final residual = 0.000313481, No Iterations 5
smoothSolver:  Solving for Uy, Initial residual = 0.0168764, Final residual = 0.00132795, No Iterations 6
Pressure gradient source: uncorrected Ubar = 1.00044, pressure gradient = 2.75991
GAMG:  Solving for p, Initial residual = 0.00124248, Final residual = 0.0001174, No Iterations 15
time step continuity errors : sum local = 2.97086e-05, global = 1.09759e-17, cumulative = 2.00287e-17
Pressure gradient source: uncorrected Ubar = 1.00002, pressure gradient = 3.39673
smoothSolver:  Solving for omega, Initial residual = 0.000628795, Final residual = 4.81191e-05, No Iterations 6
smoothSolver:  Solving for k, Initial residual = 0.00575186, Final residual = 0.000477085, No Iterations 6
ExecutionTime = 0.249841 s  ClockTime = 0 s

Time = 81s

smoothSolver:  Solving for Ux, Initial residual = 0.00332717, Final residual = 0.000312306, No Iterations 5
smoothSolver:  Solving for Uy, Initial residual = 0.0168598, Final residual = 0.00132558, No Iterations 6
Pressure gradient source: uncorrected Ubar = 1.00043, pressure gradient = 2.72138
GAMG:  Solving for p, Initial residual = 0.00121431, Final residual = 0.000120528, No Iterations 15
time step continuity errors : sum local = 2.88471e-05, global = 3.75049e-17, cumulative = 5.75337e-17
Pressure gradient source: uncorrected Ubar = 1.00002, pressure gradient = 3.36295
smoothSolver:  Solving for omega, Initial residual = 0.000619762, Final residual = 4.80503e-05, No Iterations 6
smoothSolver:  Solving for k, Initial residual = 0.00571722, Final residual = 0.000473626, No Iterations 6
ExecutionTime = 0.252925 s  ClockTime = 0 s

Time = 82s

smoothSolver:  Solving for Ux, Initial residual = 0.00330489, Final residual = 0.000311168, No Iterations 5
smoothSolver:  Solving for Uy, Initial residual = 0.0168559, Final residual = 0.00132183, No Iterations 6
Pressure gradient source: uncorrected Ubar = 1.00043, pressure gradient = 2.6854
GAMG:  Solving for p, Initial residual = 0.00129118, Final residual = 0.000106822, No Iterations 17
time step continuity errors : sum local = 2.37188e-05, global = 5.34647e-17, cumulative = 1.10998e-16
Pressure gradient source: uncorrected Ubar = 1.00002, pressure gradient = 3.32847
smoothSolver:  Solving for omega, Initial residual = 0.00061083, Final residual = 4.7263e-05, No Iterations 6
smoothSolver:  Solving for k, Initial residual = 0.0056923, Final residual = 0.000472931, No Iterations 6
ExecutionTime = 0.256087 s  ClockTime = 0 s

Time = 83s

smoothSolver:  Solving for Ux, Initial residual = 0.0032829, Final residual = 0.000310026, No Iterations 5
smoothSolver:  Solving for Uy, Initial residual = 0.0167022, Final residual = 0.00131067, No Iterations 6
Pressure gradient source: uncorrected Ubar = 1.00043, pressure gradient = 2.63914
GAMG:  Solving for p, Initial residual = 0.00132352, Final residual = 0.000109222, No Iterations 17
time step continuity errors : sum local = 2.2023e-05, global = -3.17908e-17, cumulative = 7.92075e-17
Pressure gradient source: uncorrected Ubar = 1.00002, pressure gradient = 3.29161
smoothSolver:  Solving for omega, Initial residual = 0.000602365, Final residual = 4.65766e-05, No Iterations 6
smoothSolver:  Solving for k, Initial residual = 0.00565554, Final residual = 0.000469859, No Iterations 6
ExecutionTime = 0.259251 s  ClockTime = 0 s

Time = 84s

smoothSolver:  Solving for Ux, Initial residual = 0.00326253, Final residual = 0.000308956, No Iterations 5
smoothSolver:  Solving for Uy, Initial residual = 0.0165272, Final residual = 0.00129462, No Iterations 6
Pressure gradient source: uncorrected Ubar = 1.00043, pressure gradient = 2.5988
GAMG:  Solving for p, Initial residual = 0.00134827, Final residual = 0.000127873, No Iterations 15
time step continuity errors : sum local = 2.31959e-05, global = 2.84942e-17, cumulative = 1.07702e-16
Pressure gradient source: uncorrected Ubar = 1.00002, pressure gradient = 3.25381
smoothSolver:  Solving for omega, Initial residual = 0.000594954, Final residual = 4.65779e-05, No Iterations 6
smoothSolver:  Solving for k, Initial residual = 0.00563308, Final residual = 0.000469899, No Iterations 6
ExecutionTime = 0.262392 s  ClockTime = 0 s

Time = 85s

smoothSolver:  Solving for Ux, Initial residual = 0.00324302, Final residual = 0.000307881, No Iterations 5
smoothSolver:  Solving for Uy, Initial residual = 0.0163858, Final residual = 0.00127635, No Iterations 6
Pressure gradient source: uncorrected Ubar = 1.00043, pressure gradient = 2.54433
GAMG:  Solving for p, Initial residual = 0.00178408, Final residual = 0.000173389, No Iterations 13
time step continuity errors : sum local = 2.76935e-05, global = -3.9692e-17, cumulative = 6.80098e-17
Pressure gradient source: uncorrected Ubar = 1.00003, pressure gradient = 3.21278
smoothSolver:  Solving for omega, Initial residual = 0.000587327, Final residual = 4.54834e-05, No Iterations 6
smoothSolver:  Solving for k, Initial residual = 0.00559718, Final residual = 0.000466443, No Iterations 6
ExecutionTime = 0.265367 s  ClockTime = 0 s

Time = 86s

smoothSolver:  Solving for Ux, Initial residual = 0.0032245, Final residual = 0.000306957, No Iterations 5
smoothSolver:  Solving for Uy, Initial residual = 0.0163104, Final residual = 0.00126532, No Iterations 6
Pressure gradient source: uncorrected Ubar = 1.00043, pressure gradient = 2.50249
GAMG:  Solving for p, Initial residual = 0.00178965, Final residual = 0.000146143, No Iterations 15
time step continuity errors : sum local = 2.21184e-05, global = -9.55792e-18, cumulative = 5.84519e-17
Pressure gradient source: uncorrected Ubar = 1.00003, pressure gradient = 3.17126
smoothSolver:  Solving for omega, Initial residual = 0.000581196, Final residual = 4.53722e-05, No Iterations 6
smoothSolver:  Solving for k, Initial residual = 0.00556962, Final residual = 0.000464018, No Iterations 6
ExecutionTime = 0.268433 s  ClockTime = 0 s

Time = 87s

smoothSolver:  Solving for Ux, Initial residual = 0.00320626, Final residual = 0.000306124, No Iterations 5
smoothSolver:  Solving for Uy, Initial residual = 0.0162918, Final residual = 0.00125492, No Iterations 6
Pressure gradient source: uncorrected Ubar = 1.00043, pressure gradient = 2.45621
GAMG:  Solving for p, Initial residual = 0.00174747, Final residual = 0.000142617, No Iterations 15
time step continuity errors : sum local = 1.99294e-05, global = 5.3956e-18, cumulative = 6.38475e-17
Pressure gradient source: uncorrected Ubar = 1.00003, pressure gradient = 3.12854
smoothSolver:  Solving for omega, Initial residual = 0.000575645, Final residual = 4.52044e-05, No Iterations 6
smoothSolver:  Solving for k, Initial residual = 0.00554397, Final residual = 0.000464395, No Iterations 6
ExecutionTime = 0.271501 s  ClockTime = 0 s

Time = 88s

smoothSolver:  Solving for Ux, Initial residual = 0.0031885, Final residual = 0.000305333, No Iterations 5
smoothSolver:  Solving for Uy, Initial residual = 0.0162311, Final residual = 0.00124633, No Iterations 6
Pressure gradient source: uncorrected Ubar = 1.00042, pressure gradient = 2.4125
GAMG:  Solving for p, Initial residual = 0.00181335, Final residual = 0.000180999, No Iterations 13
time step continuity errors : sum local = 2.24303e-05, global = 1.2038e-17, cumulative = 7.58855e-17
Pressure gradient source: uncorrected Ubar = 1.00003, pressure gradient = 3.08529
smoothSolver:  Solving for omega, Initial residual = 0.000569257, Final residual = 4.42211e-05, No Iterations 6
smoothSolver:  Solving for k, Initial residual = 0.00551521, Final residual = 0.000461224, No Iterations 6
ExecutionTime = 0.27461 s  ClockTime = 0 s

Time = 89s

smoothSolver:  Solving for Ux, Initial residual = 0.0031714, Final residual = 0.000304573, No Iterations 5
smoothSolver:  Solving for Uy, Initial residual = 0.0160118, Final residual = 0.00123326, No Iterations 6
Pressure gradient source: uncorrected Ubar = 1.00043, pressure gradient = 2.35401
GAMG:  Solving for p, Initial residual = 0.00185047, Final residual = 0.000184139, No Iterations 13
time step continuity errors : sum local = 2.0613e-05, global = -2.15248e-17, cumulative = 5.43607e-17
[...]
smoothSolver:  Solving for k, Initial residual = 1.99008e-05, Final residual = 7.82714e-06, No Iterations 2
ExecutionTime = 8.06679 s  ClockTime = 8 s

Time = 3054s

smoothSolver:  Solving for Ux, Initial residual = 4.44744e-06, Final residual = 4.44744e-06, No Iterations 0
smoothSolver:  Solving for Uy, Initial residual = 0.000127687, Final residual = 1.08277e-05, No Iterations 4
Pressure gradient source: uncorrected Ubar = 1, pressure gradient = 0.00422999
GAMG:  Solving for p, Initial residual = 4.42404e-05, Final residual = 4.15057e-06, No Iterations 6
time step continuity errors : sum local = 3.08542e-10, global = 4.38084e-18, cumulative = -1.30121e-16
Pressure gradient source: uncorrected Ubar = 1, pressure gradient = 0.00423007
smoothSolver:  Solving for omega, Initial residual = 6.25057e-06, Final residual = 6.25057e-06, No Iterations 0
smoothSolver:  Solving for k, Initial residual = 1.99071e-05, Final residual = 7.82985e-06, No Iterations 2
ExecutionTime = 8.06928 s  ClockTime = 8 s

Time = 3055s

smoothSolver:  Solving for Ux, Initial residual = 4.39754e-06, Final residual = 4.39754e-06, No Iterations 0
smoothSolver:  Solving for Uy, Initial residual = 0.000125211, Final residual = 1.06372e-05, No Iterations 4
Pressure gradient source: uncorrected Ubar = 1, pressure gradient = 0.00423007
GAMG:  Solving for p, Initial residual = 4.4085e-05, Final residual = 4.21811e-06, No Iterations 6
time step continuity errors : sum local = 3.16102e-10, global = -2.57648e-18, cumulative = -1.32698e-16
Pressure gradient source: uncorrected Ubar = 1, pressure gradient = 0.00423015
smoothSolver:  Solving for omega, Initial residual = 6.25055e-06, Final residual = 6.25055e-06, No Iterations 0
smoothSolver:  Solving for k, Initial residual = 1.9913e-05, Final residual = 7.83242e-06, No Iterations 2
ExecutionTime = 8.07179 s  ClockTime = 8 s

Time = 3056s

smoothSolver:  Solving for Ux, Initial residual = 4.34771e-06, Final residual = 4.34771e-06, No Iterations 0
smoothSolver:  Solving for Uy, Initial residual = 0.000122945, Final residual = 1.04591e-05, No Iterations 4
Pressure gradient source: uncorrected Ubar = 1, pressure gradient = 0.00423015
GAMG:  Solving for p, Initial residual = 4.39161e-05, Final residual = 4.29297e-06, No Iterations 6
time step continuity errors : sum local = 3.24043e-10, global = -1.74222e-18, cumulative = -1.3444e-16
Pressure gradient source: uncorrected Ubar = 1, pressure gradient = 0.00423023
smoothSolver:  Solving for omega, Initial residual = 6.25054e-06, Final residual = 6.25054e-06, No Iterations 0
smoothSolver:  Solving for k, Initial residual = 1.99185e-05, Final residual = 7.83483e-06, No Iterations 2
ExecutionTime = 8.07429 s  ClockTime = 8 s

Time = 3057s

smoothSolver:  Solving for Ux, Initial residual = 4.29796e-06, Final residual = 4.29796e-06, No Iterations 0
smoothSolver:  Solving for Uy, Initial residual = 0.000120861, Final residual = 1.03058e-05, No Iterations 4
Pressure gradient source: uncorrected Ubar = 1, pressure gradient = 0.00423023
GAMG:  Solving for p, Initial residual = 4.37473e-05, Final residual = 4.3643e-06, No Iterations 6
time step continuity errors : sum local = 3.3152e-10, global = 3.69007e-18, cumulative = -1.3075e-16
Pressure gradient source: uncorrected Ubar = 1, pressure gradient = 0.00423031
smoothSolver:  Solving for omega, Initial residual = 6.25052e-06, Final residual = 6.25052e-06, No Iterations 0
smoothSolver:  Solving for k, Initial residual = 1.99236e-05, Final residual = 7.83709e-06, No Iterations 2
ExecutionTime = 8.07682 s  ClockTime = 8 s

Time = 3058s

smoothSolver:  Solving for Ux, Initial residual = 4.24827e-06, Final residual = 4.24827e-06, No Iterations 0
smoothSolver:  Solving for Uy, Initial residual = 0.00011895, Final residual = 1.01624e-05, No Iterations 4
Pressure gradient source: uncorrected Ubar = 1, pressure gradient = 0.00423031
GAMG:  Solving for p, Initial residual = 4.35724e-05, Final residual = 3.66881e-06, No Iterations 7
time step continuity errors : sum local = 2.84175e-10, global = 5.39141e-18, cumulative = -1.25358e-16
Pressure gradient source: uncorrected Ubar = 1, pressure gradient = 0.0042304
smoothSolver:  Solving for omega, Initial residual = 6.25051e-06, Final residual = 6.25051e-06, No Iterations 0
smoothSolver:  Solving for k, Initial residual = 1.99284e-05, Final residual = 7.83921e-06, No Iterations 2
ExecutionTime = 8.07938 s  ClockTime = 8 s

Time = 3059s

smoothSolver:  Solving for Ux, Initial residual = 4.19866e-06, Final residual = 4.19866e-06, No Iterations 0
smoothSolver:  Solving for Uy, Initial residual = 0.000117916, Final residual = 1.00691e-05, No Iterations 4
Pressure gradient source: uncorrected Ubar = 1, pressure gradient = 0.0042304
GAMG:  Solving for p, Initial residual = 4.27039e-05, Final residual = 3.56029e-06, No Iterations 7
time step continuity errors : sum local = 2.77387e-10, global = -1.74908e-18, cumulative = -1.27108e-16
Pressure gradient source: uncorrected Ubar = 1, pressure gradient = 0.00423048
smoothSolver:  Solving for omega, Initial residual = 6.2505e-06, Final residual = 6.2505e-06, No Iterations 0
smoothSolver:  Solving for k, Initial residual = 1.99327e-05, Final residual = 7.84117e-06, No Iterations 2
ExecutionTime = 8.08194 s  ClockTime = 8 s

Time = 3060s

smoothSolver:  Solving for Ux, Initial residual = 4.14912e-06, Final residual = 4.14912e-06, No Iterations 0
smoothSolver:  Solving for Uy, Initial residual = 0.000116295, Final residual = 1.00127e-05, No Iterations 4
Pressure gradient source: uncorrected Ubar = 1, pressure gradient = 0.00423048
GAMG:  Solving for p, Initial residual = 4.21952e-05, Final residual = 3.49036e-06, No Iterations 7
time step continuity errors : sum local = 2.72955e-10, global = 4.67654e-18, cumulative = -1.22431e-16
Pressure gradient source: uncorrected Ubar = 1, pressure gradient = 0.00423056
smoothSolver:  Solving for omega, Initial residual = 6.25048e-06, Final residual = 6.25048e-06, No Iterations 0
smoothSolver:  Solving for k, Initial residual = 1.99367e-05, Final residual = 7.84299e-06, No Iterations 2
ExecutionTime = 8.08452 s  ClockTime = 8 s

Time = 3061s

smoothSolver:  Solving for Ux, Initial residual = 4.09966e-06, Final residual = 4.09966e-06, No Iterations 0
smoothSolver:  Solving for Uy, Initial residual = 0.000114394, Final residual = 9.95462e-06, No Iterations 4
Pressure gradient source: uncorrected Ubar = 1, pressure gradient = 0.00423056
GAMG:  Solving for p, Initial residual = 4.18464e-05, Final residual = 4.18115e-06, No Iterations 6
time step continuity errors : sum local = 3.2296e-10, global = -2.7355e-19, cumulative = -1.22705e-16
Pressure gradient source: uncorrected Ubar = 1, pressure gradient = 0.00423064
smoothSolver:  Solving for omega, Initial residual = 6.25047e-06, Final residual = 6.25047e-06, No Iterations 0
smoothSolver:  Solving for k, Initial residual = 1.99403e-05, Final residual = 7.84465e-06, No Iterations 2
ExecutionTime = 8.08702 s  ClockTime = 8 s

Time = 3062s

smoothSolver:  Solving for Ux, Initial residual = 4.05026e-06, Final residual = 4.05026e-06, No Iterations 0
smoothSolver:  Solving for Uy, Initial residual = 0.000111733, Final residual = 9.85103e-06, No Iterations 4
Pressure gradient source: uncorrected Ubar = 1, pressure gradient = 0.00423064
GAMG:  Solving for p, Initial residual = 4.22329e-05, Final residual = 3.59557e-06, No Iterations 7
time step continuity errors : sum local = 2.83173e-10, global = -2.2842e-18, cumulative = -1.24989e-16
Pressure gradient source: uncorrected Ubar = 1, pressure gradient = 0.00423072
smoothSolver:  Solving for omega, Initial residual = 6.25045e-06, Final residual = 6.25045e-06, No Iterations 0
smoothSolver:  Solving for k, Initial residual = 1.99435e-05, Final residual = 7.84617e-06, No Iterations 2
ExecutionTime = 8.08956 s  ClockTime = 8 s

Time = 3063s

smoothSolver:  Solving for Ux, Initial residual = 4.00094e-06, Final residual = 4.00094e-06, No Iterations 0
smoothSolver:  Solving for Uy, Initial residual = 0.000110352, Final residual = 9.74209e-06, No Iterations 4
Pressure gradient source: uncorrected Ubar = 1, pressure gradient = 0.00423072
GAMG:  Solving for p, Initial residual = 4.16746e-05, Final residual = 3.85212e-06, No Iterations 7
time step continuity errors : sum local = 3.00089e-10, global = 3.66158e-18, cumulative = -1.21327e-16
Pressure gradient source: uncorrected Ubar = 1, pressure gradient = 0.0042308
smoothSolver:  Solving for omega, Initial residual = 6.25044e-06, Final residual = 6.25044e-06, No Iterations 0
smoothSolver:  Solving for k, Initial residual = 1.99464e-05, Final residual = 7.84755e-06, No Iterations 2
ExecutionTime = 8.09212 s  ClockTime = 8 s

Time = 3064s

smoothSolver:  Solving for Ux, Initial residual = 3.95169e-06, Final residual = 3.95169e-06, No Iterations 0
smoothSolver:  Solving for Uy, Initial residual = 0.000108991, Final residual = 9.70982e-06, No Iterations 4
Pressure gradient source: uncorrected Ubar = 1, pressure gradient = 0.0042308
GAMG:  Solving for p, Initial residual = 4.13791e-05, Final residual = 3.91597e-06, No Iterations 7
time step continuity errors : sum local = 3.04968e-10, global = -8.39401e-18, cumulative = -1.29721e-16
Pressure gradient source: uncorrected Ubar = 1, pressure gradient = 0.00423088
smoothSolver:  Solving for omega, Initial residual = 6.25043e-06, Final residual = 6.25043e-06, No Iterations 0
smoothSolver:  Solving for k, Initial residual = 1.99489e-05, Final residual = 7.84878e-06, No Iterations 2
ExecutionTime = 8.0947 s  ClockTime = 8 s

Time = 3065s

smoothSolver:  Solving for Ux, Initial residual = 3.90252e-06, Final residual = 3.90252e-06, No Iterations 0
smoothSolver:  Solving for Uy, Initial residual = 0.000107955, Final residual = 9.62404e-06, No Iterations 4
Pressure gradient source: uncorrected Ubar = 1, pressure gradient = 0.00423088
GAMG:  Solving for p, Initial residual = 4.11699e-05, Final residual = 3.95974e-06, No Iterations 7
time step continuity errors : sum local = 3.08912e-10, global = 3.33343e-18, cumulative = -1.26388e-16
Pressure gradient source: uncorrected Ubar = 1, pressure gradient = 0.00423096
smoothSolver:  Solving for omega, Initial residual = 6.25042e-06, Final residual = 6.25042e-06, No Iterations 0
smoothSolver:  Solving for k, Initial residual = 1.9951e-05, Final residual = 7.84986e-06, No Iterations 2
ExecutionTime = 8.09723 s  ClockTime = 8 s

Time = 3066s

smoothSolver:  Solving for Ux, Initial residual = 3.85341e-06, Final residual = 3.85341e-06, No Iterations 0
smoothSolver:  Solving for Uy, Initial residual = 0.000106978, Final residual = 9.54228e-06, No Iterations 4
Pressure gradient source: uncorrected Ubar = 1, pressure gradient = 0.00423096
GAMG:  Solving for p, Initial residual = 4.09985e-05, Final residual = 3.9898e-06, No Iterations 7
time step continuity errors : sum local = 3.11697e-10, global = -3.20156e-18, cumulative = -1.29589e-16
Pressure gradient source: uncorrected Ubar = 1, pressure gradient = 0.00423104
smoothSolver:  Solving for omega, Initial residual = 6.2504e-06, Final residual = 6.2504e-06, No Iterations 0
smoothSolver:  Solving for k, Initial residual = 1.99527e-05, Final residual = 7.8508e-06, No Iterations 2
ExecutionTime = 8.09979 s  ClockTime = 8 s

Time = 3067s

smoothSolver:  Solving for Ux, Initial residual = 3.80438e-06, Final residual = 3.80438e-06, No Iterations 0
smoothSolver:  Solving for Uy, Initial residual = 0.00010613, Final residual = 9.48338e-06, No Iterations 4
Pressure gradient source: uncorrected Ubar = 1, pressure gradient = 0.00423104
GAMG:  Solving for p, Initial residual = 4.08349e-05, Final residual = 4.02041e-06, No Iterations 7
time step continuity errors : sum local = 3.14577e-10, global = -4.81526e-19, cumulative = -1.30071e-16
Pressure gradient source: uncorrected Ubar = 1, pressure gradient = 0.00423113
smoothSolver:  Solving for omega, Initial residual = 6.25039e-06, Final residual = 6.25039e-06, No Iterations 0
smoothSolver:  Solving for k, Initial residual = 1.99541e-05, Final residual = 7.85159e-06, No Iterations 2
ExecutionTime = 8.10233 s  ClockTime = 8 s

Time = 3068s

smoothSolver:  Solving for Ux, Initial residual = 3.75542e-06, Final residual = 3.75542e-06, No Iterations 0
smoothSolver:  Solving for Uy, Initial residual = 0.000105345, Final residual = 9.43899e-06, No Iterations 4
Pressure gradient source: uncorrected Ubar = 1, pressure gradient = 0.00423113
GAMG:  Solving for p, Initial residual = 4.06798e-05, Final residual = 4.04985e-06, No Iterations 7
time step continuity errors : sum local = 3.17336e-10, global = -6.76697e-18, cumulative = -1.36838e-16
Pressure gradient source: uncorrected Ubar = 1, pressure gradient = 0.00423121
smoothSolver:  Solving for omega, Initial residual = 6.25038e-06, Final residual = 6.25038e-06, No Iterations 0
smoothSolver:  Solving for k, Initial residual = 1.99551e-05, Final residual = 7.85225e-06, No Iterations 2
ExecutionTime = 8.1049 s  ClockTime = 8 s

Time = 3069s

smoothSolver:  Solving for Ux, Initial residual = 3.70654e-06, Final residual = 3.70654e-06, No Iterations 0
smoothSolver:  Solving for Uy, Initial residual = 0.000104612, Final residual = 9.41232e-06, No Iterations 4
Pressure gradient source: uncorrected Ubar = 1, pressure gradient = 0.00423121
GAMG:  Solving for p, Initial residual = 4.05296e-05, Final residual = 3.72106e-06, No Iterations 8
time step continuity errors : sum local = 2.93472e-10, global = 5.94554e-18, cumulative = -1.30892e-16
Pressure gradient source: uncorrected Ubar = 1, pressure gradient = 0.00423129
smoothSolver:  Solving for omega, Initial residual = 6.25037e-06, Final residual = 6.25037e-06, No Iterations 0
smoothSolver:  Solving for k, Initial residual = 1.99557e-05, Final residual = 7.85275e-06, No Iterations 2
ExecutionTime = 8.10749 s  ClockTime = 8 s

Time = 3070s

smoothSolver:  Solving for Ux, Initial residual = 3.65976e-06, Final residual = 3.65976e-06, No Iterations 0
smoothSolver:  Solving for Uy, Initial residual = 0.000104088, Final residual = 9.40478e-06, No Iterations 4
Pressure gradient source: uncorrected Ubar = 1, pressure gradient = 0.00423129
GAMG:  Solving for p, Initial residual = 4.05722e-05, Final residual = 4.03006e-06, No Iterations 7
time step continuity errors : sum local = 3.16025e-10, global = -4.4278e-18, cumulative = -1.3532e-16
Pressure gradient source: uncorrected Ubar = 1, pressure gradient = 0.00423137
smoothSolver:  Solving for omega, Initial residual = 6.25035e-06, Final residual = 6.25035e-06, No Iterations 0
smoothSolver:  Solving for k, Initial residual = 1.9956e-05, Final residual = 7.85312e-06, No Iterations 2
ExecutionTime = 8.11005 s  ClockTime = 8 s

Time = 3071s

smoothSolver:  Solving for Ux, Initial residual = 3.61568e-06, Final residual = 3.61568e-06, No Iterations 0
smoothSolver:  Solving for Uy, Initial residual = 0.000103175, Final residual = 9.36523e-06, No Iterations 4
Pressure gradient source: uncorrected Ubar = 1, pressure gradient = 0.00423137
GAMG:  Solving for p, Initial residual = 4.03484e-05, Final residual = 3.77238e-06, No Iterations 8
time step continuity errors : sum local = 2.9735e-10, global = -9.56097e-18, cumulative = -1.44881e-16
Pressure gradient source: uncorrected Ubar = 1, pressure gradient = 0.00423145
smoothSolver:  Solving for omega, Initial residual = 6.25034e-06, Final residual = 6.25034e-06, No Iterations 0
smoothSolver:  Solving for k, Initial residual = 1.99559e-05, Final residual = 7.85335e-06, No Iterations 2
ExecutionTime = 8.11275 s  ClockTime = 8 s

Time = 3072s

smoothSolver:  Solving for Ux, Initial residual = 3.57424e-06, Final residual = 3.57424e-06, No Iterations 0
smoothSolver:  Solving for Uy, Initial residual = 0.000102424, Final residual = 9.31823e-06, No Iterations 4
Pressure gradient source: uncorrected Ubar = 1, pressure gradient = 0.00423145
GAMG:  Solving for p, Initial residual = 4.03443e-05, Final residual = 3.75589e-06, No Iterations 8
time step continuity errors : sum local = 2.95958e-10, global = 1.39661e-18, cumulative = -1.43484e-16
Pressure gradient source: uncorrected Ubar = 1, pressure gradient = 0.00423153
smoothSolver:  Solving for omega, Initial residual = 6.25033e-06, Final residual = 6.25033e-06, No Iterations 0
smoothSolver:  Solving for k, Initial residual = 1.99555e-05, Final residual = 7.85343e-06, No Iterations 2
ExecutionTime = 8.11537 s  ClockTime = 8 s

Time = 3073s

smoothSolver:  Solving for Ux, Initial residual = 3.53352e-06, Final residual = 3.53352e-06, No Iterations 0
smoothSolver:  Solving for Uy, Initial residual = 0.000101672, Final residual = 9.27206e-06, No Iterations 4
Pressure gradient source: uncorrected Ubar = 1, pressure gradient = 0.00423153
GAMG:  Solving for p, Initial residual = 4.02844e-05, Final residual = 3.75826e-06, No Iterations 8
time step continuity errors : sum local = 2.96095e-10, global = -3.30238e-18, cumulative = -1.46787e-16
Pressure gradient source: uncorrected Ubar = 1, pressure gradient = 0.00423161
smoothSolver:  Solving for omega, Initial residual = 6.25032e-06, Final residual = 6.25032e-06, No Iterations 0
smoothSolver:  Solving for k, Initial residual = 1.99547e-05, Final residual = 7.85338e-06, No Iterations 2
ExecutionTime = 8.11796 s  ClockTime = 8 s

Time = 3074s

smoothSolver:  Solving for Ux, Initial residual = 3.49517e-06, Final residual = 3.49517e-06, No Iterations 0
smoothSolver:  Solving for Uy, Initial residual = 0.000100907, Final residual = 9.21142e-06, No Iterations 4
Pressure gradient source: uncorrected Ubar = 1, pressure gradient = 0.00423161
GAMG:  Solving for p, Initial residual = 4.01695e-05, Final residual = 3.7659e-06, No Iterations 8
time step continuity errors : sum local = 2.96766e-10, global = 5.48147e-18, cumulative = -1.41305e-16
Pressure gradient source: uncorrected Ubar = 1, pressure gradient = 0.00423169
smoothSolver:  Solving for omega, Initial residual = 6.25031e-06, Final residual = 6.25031e-06, No Iterations 0
smoothSolver:  Solving for k, Initial residual = 1.99536e-05, Final residual = 7.85318e-06, No Iterations 2
ExecutionTime = 8.12055 s  ClockTime = 8 s

Time = 3075s

smoothSolver:  Solving for Ux, Initial residual = 3.45759e-06, Final residual = 3.45759e-06, No Iterations 0
smoothSolver:  Solving for Uy, Initial residual = 0.000100157, Final residual = 9.14636e-06, No Iterations 4
Pressure gradient source: uncorrected Ubar = 1, pressure gradient = 0.00423169
GAMG:  Solving for p, Initial residual = 4.00259e-05, Final residual = 3.77221e-06, No Iterations 8
time step continuity errors : sum local = 2.97456e-10, global = -2.31076e-18, cumulative = -1.43616e-16
Pressure gradient source: uncorrected Ubar = 1, pressure gradient = 0.00423177
smoothSolver:  Solving for omega, Initial residual = 6.25029e-06, Final residual = 6.25029e-06, No Iterations 0
smoothSolver:  Solving for k, Initial residual = 1.99521e-05, Final residual = 7.85285e-06, No Iterations 2
ExecutionTime = 8.12316 s  ClockTime = 8 s

Time = 3076s

smoothSolver:  Solving for Ux, Initial residual = 3.42068e-06, Final residual = 3.42068e-06, No Iterations 0
smoothSolver:  Solving for Uy, Initial residual = 9.94599e-05, Final residual = 9.0842e-06, No Iterations 4
Pressure gradient source: uncorrected Ubar = 1, pressure gradient = 0.00423177
GAMG:  Solving for p, Initial residual = 3.98653e-05, Final residual = 3.7741e-06, No Iterations 8
time step continuity errors : sum local = 2.97856e-10, global = -2.27717e-18, cumulative = -1.45893e-16
Pressure gradient source: uncorrected Ubar = 1, pressure gradient = 0.00423185
smoothSolver:  Solving for omega, Initial residual = 6.25028e-06, Final residual = 6.25028e-06, No Iterations 0
smoothSolver:  Solving for k, Initial residual = 1.99502e-05, Final residual = 7.85238e-06, No Iterations 2
ExecutionTime = 8.12577 s  ClockTime = 8 s


SIMPLE solution converged in 3076 iterations

End

