/*---------------------------------------------------------------------------*\
  =========                 |
  \\      /  F ield         | OpenFOAM: The Open Source CFD Toolbox
   \\    /   O peration     | Website:  https://openfoam.org
    \\  /    A nd           | Version:  10
     \\/     M anipulation  |
\*---------------------------------------------------------------------------*/
Build  : 10-e450dce21ea5
Exec   : blockMesh
Date   : Jan 16 2023
Time   : 11:44:09
Host   : "w530-R9YK46P"
PID    : 14464
I/O    : uncollated
Case   : /home/jdmezazeron/gitDanielMezaZ/turbulenceVisualized/Data/SimulationFiles/E26_Re19681
nProcs : 1
sigFpe : Enabling floating point exception trapping (FOAM_SIGFPE).
fileModificationChecking : Monitoring run-time modified files using timeStampMaster (fileModificationSkew 10)
allowSystemOperations : Allowing user-supplied system call operations

// * * * * * * * * * * * * * * * * * * * * * * * * * * * * * * * * * * * * * //
Create time

Reading "blockMeshDict"

Creating block mesh from
    "system/blockMeshDict"
Creating block edges
No non-planar block faces defined
Creating topology blocks
Creating topology patches

Creating block mesh topology

Check topology

	Basic statistics
		Number of internal faces : 0
		Number of boundary faces : 6
		Number of defined boundary faces : 6
		Number of undefined boundary faces : 0
	Checking patch -> block consistency

Creating block offsets
Creating merge list .

Creating polyMesh from blockMesh
Creating patches
Creating cells
Creating points with scale 1
    Block 0 cell size :
        i : 0.5
        j : 0.00921276 .. 0.036851
        k : 2

Detected cyclic patches; ordering boundary faces

Writing polyMesh
----------------
Mesh Information
----------------
  boundingBox: (-1 0 -1) (1 1 1)
  nPoints: 510
  nCells: 200
  nFaces: 854
  nInternalFaces: 346
----------------
Patches
----------------
  patch 0 (start: 346 size: 50) name: inlet
  patch 1 (start: 396 size: 50) name: outlet
  patch 2 (start: 446 size: 4) name: fixedWalls-bottom
  patch 3 (start: 450 size: 4) name: fixedWalls-top
  patch 4 (start: 454 size: 400) name: frontAndBack

End

/*---------------------------------------------------------------------------*\
  =========                 |
  \\      /  F ield         | OpenFOAM: The Open Source CFD Toolbox
   \\    /   O peration     | Website:  https://openfoam.org
    \\  /    A nd           | Version:  10
     \\/     M anipulation  |
\*---------------------------------------------------------------------------*/
Build  : 10-e450dce21ea5
Exec   : simpleFoam
Date   : Jan 16 2023
Time   : 11:44:09
Host   : "w530-R9YK46P"
PID    : 14465
I/O    : uncollated
Case   : /home/jdmezazeron/gitDanielMezaZ/turbulenceVisualized/Data/SimulationFiles/E26_Re19681
nProcs : 1
sigFpe : Enabling floating point exception trapping (FOAM_SIGFPE).
fileModificationChecking : Monitoring run-time modified files using timeStampMaster (fileModificationSkew 10)
allowSystemOperations : Allowing user-supplied system call operations

// * * * * * * * * * * * * * * * * * * * * * * * * * * * * * * * * * * * * * //
Create time

Create mesh for time = 0


SIMPLE: Convergence criteria found
        U: tolerance 0.01
        p: tolerance 0.01
        omega: tolerance 0.0001

Reading field p

Reading field U

Reading/calculating face flux field phi

Selecting viscosity model Newtonian
Selecting turbulence model type RAS
Selecting RAS turbulence model kOmegaSST
Selecting patchDistMethod meshWave
RAS
{
    RASModel        kOmegaSST;
    turbulence      on;
    printCoeffs     on;
    alphaK1         0.85;
    alphaK2         1;
    alphaOmega1     0.5;
    alphaOmega2     0.856;
    gamma1          0.555556;
    gamma2          0.44;
    beta1           0.075;
    beta2           0.0828;
    betaStar        0.09;
    a1              0.31;
    b1              1;
    c1              10;
    F3              false;
}

No MRF models present

--> FOAM Warning : Creating fvModels from "system/fvOptions" rather than constant/fvModels
No fvModels present
--> FOAM Warning : Creating fvConstraints from "system/fvOptions"

Selecting finite volume constraint type meanVelocityForce
    Name: momentumSource
    - selecting all cells
    - selected 200 cell(s) with volume 4
    Initial pressure gradient = 0


Starting time loop

turbulenceFields stressComponents: storing fields:
    R

Time = 1s

smoothSolver:  Solving for Ux, Initial residual = 0, Final residual = 0, No Iterations 0
smoothSolver:  Solving for Uy, Initial residual = 0, Final residual = 0, No Iterations 0
Pressure gradient source: uncorrected Ubar = 0, pressure gradient = 1.10494
GAMG:  Solving for p, Initial residual = 0.99999, Final residual = 0.0444621, No Iterations 3
time step continuity errors : sum local = 7.24159e-17, global = 1.40902e-17, cumulative = 1.40902e-17
Pressure gradient source: uncorrected Ubar = 0.869408, pressure gradient = 0.144296
smoothSolver:  Solving for omega, Initial residual = 0.645093, Final residual = 0.0485995, No Iterations 1
bounding omega, min: -12.8917 max: 383.058 average: 21.0913
smoothSolver:  Solving for k, Initial residual = 1, Final residual = 0.0556854, No Iterations 2
ExecutionTime = 0.012804 s  ClockTime = 0 s

Time = 2s

smoothSolver:  Solving for Ux, Initial residual = 0.117993, Final residual = 0.0100997, No Iterations 5
smoothSolver:  Solving for Uy, Initial residual = 1, Final residual = 0.0810425, No Iterations 2
Pressure gradient source: uncorrected Ubar = 1.12403, pressure gradient = -0.624718
GAMG:  Solving for p, Initial residual = 1, Final residual = 0.0901386, No Iterations 7
time step continuity errors : sum local = 0.00564183, global = -2.16841e-18, cumulative = 1.19218e-17
Pressure gradient source: uncorrected Ubar = 1.03067, pressure gradient = -0.0458747
smoothSolver:  Solving for omega, Initial residual = 0.102835, Final residual = 0.00430936, No Iterations 2
smoothSolver:  Solving for k, Initial residual = 0.267299, Final residual = 0.0231485, No Iterations 3
ExecutionTime = 0.015093 s  ClockTime = 0 s

Time = 3s

smoothSolver:  Solving for Ux, Initial residual = 0.139391, Final residual = 0.0130111, No Iterations 4
smoothSolver:  Solving for Uy, Initial residual = 0.581748, Final residual = 0.0372879, No Iterations 3
Pressure gradient source: uncorrected Ubar = 0.95384, pressure gradient = 0.406401
GAMG:  Solving for p, Initial residual = 0.105544, Final residual = 0.00879582, No Iterations 4
time step continuity errors : sum local = 0.00200563, global = 7.10152e-18, cumulative = 1.90233e-17
Pressure gradient source: uncorrected Ubar = 0.992846, pressure gradient = 0.0242175
smoothSolver:  Solving for omega, Initial residual = 0.021522, Final residual = 0.00184381, No Iterations 2
smoothSolver:  Solving for k, Initial residual = 0.221057, Final residual = 0.0158467, No Iterations 2
ExecutionTime = 0.017061 s  ClockTime = 0 s

Time = 4s

smoothSolver:  Solving for Ux, Initial residual = 0.0765069, Final residual = 0.00673494, No Iterations 4
smoothSolver:  Solving for Uy, Initial residual = 0.505411, Final residual = 0.028881, No Iterations 3
Pressure gradient source: uncorrected Ubar = 1.00555, pressure gradient = -0.0331655
GAMG:  Solving for p, Initial residual = 0.0286833, Final residual = 0.00269579, No Iterations 15
time step continuity errors : sum local = 0.00143095, global = -6.77626e-18, cumulative = 1.2247e-17
Pressure gradient source: uncorrected Ubar = 1.00088, pressure gradient = 0.015071
smoothSolver:  Solving for omega, Initial residual = 0.0086897, Final residual = 0.000337117, No Iterations 3
smoothSolver:  Solving for k, Initial residual = 0.113885, Final residual = 0.00776097, No Iterations 3
ExecutionTime = 0.019351 s  ClockTime = 0 s

Time = 5s

smoothSolver:  Solving for Ux, Initial residual = 0.0469119, Final residual = 0.00335575, No Iterations 5
smoothSolver:  Solving for Uy, Initial residual = 0.546208, Final residual = 0.0334941, No Iterations 3
Pressure gradient source: uncorrected Ubar = 1.00157, pressure gradient = -0.00244613
GAMG:  Solving for p, Initial residual = 0.0446606, Final residual = 0.00402088, No Iterations 6
time step continuity errors : sum local = 0.000941882, global = -7.64363e-18, cumulative = 4.60339e-18
Pressure gradient source: uncorrected Ubar = 1.00025, pressure gradient = 0.0122304
smoothSolver:  Solving for omega, Initial residual = 0.00472073, Final residual = 0.000414846, No Iterations 3
smoothSolver:  Solving for k, Initial residual = 0.0859627, Final residual = 0.00495451, No Iterations 4
ExecutionTime = 0.021556 s  ClockTime = 0 s

Time = 6s

smoothSolver:  Solving for Ux, Initial residual = 0.0353424, Final residual = 0.00276546, No Iterations 5
smoothSolver:  Solving for Uy, Initial residual = 0.402529, Final residual = 0.0278797, No Iterations 3
Pressure gradient source: uncorrected Ubar = 1.00154, pressure gradient = -0.00576341
GAMG:  Solving for p, Initial residual = 0.121646, Final residual = 0.0117928, No Iterations 18
time step continuity errors : sum local = 0.000740631, global = -4.45836e-18, cumulative = 1.45033e-19
Pressure gradient source: uncorrected Ubar = 1.00023, pressure gradient = 0.00952301
smoothSolver:  Solving for omega, Initial residual = 0.00291255, Final residual = 0.000170215, No Iterations 4
smoothSolver:  Solving for k, Initial residual = 0.0764727, Final residual = 0.00445032, No Iterations 4
ExecutionTime = 0.02413 s  ClockTime = 0 s

Time = 7s

smoothSolver:  Solving for Ux, Initial residual = 0.0272403, Final residual = 0.00230708, No Iterations 5
smoothSolver:  Solving for Uy, Initial residual = 0.459018, Final residual = 0.0277824, No Iterations 3
Pressure gradient source: uncorrected Ubar = 1.00157, pressure gradient = -0.00966525
GAMG:  Solving for p, Initial residual = 0.0722904, Final residual = 0.0058048, No Iterations 18
time step continuity errors : sum local = 0.000402645, global = 4.81022e-18, cumulative = 4.95525e-18
Pressure gradient source: uncorrected Ubar = 1.00023, pressure gradient = 0.00670955
smoothSolver:  Solving for omega, Initial residual = 0.00225421, Final residual = 0.000109399, No Iterations 4
smoothSolver:  Solving for k, Initial residual = 0.062055, Final residual = 0.00385382, No Iterations 4
ExecutionTime = 0.02671 s  ClockTime = 0 s

Time = 8s

smoothSolver:  Solving for Ux, Initial residual = 0.0212952, Final residual = 0.00195665, No Iterations 5
smoothSolver:  Solving for Uy, Initial residual = 0.457835, Final residual = 0.0285541, No Iterations 3
Pressure gradient source: uncorrected Ubar = 1.001, pressure gradient = -0.00597749
GAMG:  Solving for p, Initial residual = 0.0340547, Final residual = 0.00304539, No Iterations 8
time step continuity errors : sum local = 0.000346719, global = 3.76813e-18, cumulative = 8.72339e-18
Pressure gradient source: uncorrected Ubar = 1.00014, pressure gradient = 0.00489074
smoothSolver:  Solving for omega, Initial residual = 0.00189986, Final residual = 0.000114374, No Iterations 5
smoothSolver:  Solving for k, Initial residual = 0.0600521, Final residual = 0.00594684, No Iterations 4
ExecutionTime = 0.028915 s  ClockTime = 0 s

Time = 9s

smoothSolver:  Solving for Ux, Initial residual = 0.0173562, Final residual = 0.00169724, No Iterations 5
smoothSolver:  Solving for Uy, Initial residual = 0.446105, Final residual = 0.0304561, No Iterations 3
Pressure gradient source: uncorrected Ubar = 1.00065, pressure gradient = -0.00381375
GAMG:  Solving for p, Initial residual = 0.0220684, Final residual = 0.0021498, No Iterations 4
time step continuity errors : sum local = 0.00025996, global = 5.4397e-18, cumulative = 1.41631e-17
Pressure gradient source: uncorrected Ubar = 1.00009, pressure gradient = 0.00364972
smoothSolver:  Solving for omega, Initial residual = 0.0015169, Final residual = 0.000147804, No Iterations 4
smoothSolver:  Solving for k, Initial residual = 0.0553258, Final residual = 0.00539652, No Iterations 4
ExecutionTime = 0.030967 s  ClockTime = 0 s

Time = 10s

smoothSolver:  Solving for Ux, Initial residual = 0.0147307, Final residual = 0.00102159, No Iterations 6
smoothSolver:  Solving for Uy, Initial residual = 0.491115, Final residual = 0.0316424, No Iterations 3
Pressure gradient source: uncorrected Ubar = 1.0005, pressure gradient = -0.00325304
GAMG:  Solving for p, Initial residual = 0.0178516, Final residual = 0.001693, No Iterations 13
time step continuity errors : sum local = 0.000257215, global = 8.21626e-18, cumulative = 2.23793e-17
Pressure gradient source: uncorrected Ubar = 1.00007, pressure gradient = 0.00268937
smoothSolver:  Solving for omega, Initial residual = 0.00135363, Final residual = 9.63058e-05, No Iterations 5
smoothSolver:  Solving for k, Initial residual = 0.0474112, Final residual = 0.00420039, No Iterations 4
ExecutionTime = 0.033384 s  ClockTime = 0 s

Time = 11s

smoothSolver:  Solving for Ux, Initial residual = 0.0127172, Final residual = 0.000919385, No Iterations 6
smoothSolver:  Solving for Uy, Initial residual = 0.545836, Final residual = 0.0380964, No Iterations 3
Pressure gradient source: uncorrected Ubar = 1.00028, pressure gradient = -0.00131974
GAMG:  Solving for p, Initial residual = 0.0189083, Final residual = 0.00160392, No Iterations 18
time step continuity errors : sum local = 0.000212694, global = -4.76709e-18, cumulative = 1.76123e-17
Pressure gradient source: uncorrected Ubar = 1.00004, pressure gradient = 0.00213774
smoothSolver:  Solving for omega, Initial residual = 0.0011053, Final residual = 6.87956e-05, No Iterations 5
smoothSolver:  Solving for k, Initial residual = 0.0430416, Final residual = 0.003923, No Iterations 4
ExecutionTime = 0.035886 s  ClockTime = 0 s

Time = 12s

smoothSolver:  Solving for Ux, Initial residual = 0.0111842, Final residual = 0.000848295, No Iterations 6
smoothSolver:  Solving for Uy, Initial residual = 0.551872, Final residual = 0.0391738, No Iterations 3
Pressure gradient source: uncorrected Ubar = 1.00026, pressure gradient = -0.00174161
GAMG:  Solving for p, Initial residual = 0.0234733, Final residual = 0.00220241, No Iterations 16
time step continuity errors : sum local = 0.000168538, global = 1.52212e-18, cumulative = 1.91344e-17
Pressure gradient source: uncorrected Ubar = 1.00004, pressure gradient = 0.00159274
smoothSolver:  Solving for omega, Initial residual = 0.000959774, Final residual = 5.70157e-05, No Iterations 5
smoothSolver:  Solving for k, Initial residual = 0.0424845, Final residual = 0.00261836, No Iterations 5
ExecutionTime = 0.038345 s  ClockTime = 0 s

Time = 13s

smoothSolver:  Solving for Ux, Initial residual = 0.0100774, Final residual = 0.000805767, No Iterations 6
smoothSolver:  Solving for Uy, Initial residual = 0.45146, Final residual = 0.0371992, No Iterations 3
Pressure gradient source: uncorrected Ubar = 1.00019, pressure gradient = -0.00131244
GAMG:  Solving for p, Initial residual = 0.0339714, Final residual = 0.00331253, No Iterations 20
time step continuity errors : sum local = 0.000137926, global = -5.6063e-19, cumulative = 1.85737e-17
Pressure gradient source: uncorrected Ubar = 1.00003, pressure gradient = 0.00118444
smoothSolver:  Solving for omega, Initial residual = 0.000849359, Final residual = 7.81434e-05, No Iterations 4
smoothSolver:  Solving for k, Initial residual = 0.0385591, Final residual = 0.00294219, No Iterations 5
ExecutionTime = 0.041216 s  ClockTime = 0 s

Time = 14s

smoothSolver:  Solving for Ux, Initial residual = 0.00924815, Final residual = 0.00077343, No Iterations 6
smoothSolver:  Solving for Uy, Initial residual = 0.349107, Final residual = 0.0289762, No Iterations 3
Pressure gradient source: uncorrected Ubar = 1.00009, pressure gradient = -0.000206436
GAMG:  Solving for p, Initial residual = 0.0775241, Final residual = 0.00770226, No Iterations 12
time step continuity errors : sum local = 0.000101462, global = 2.66689e-18, cumulative = 2.12406e-17
Pressure gradient source: uncorrected Ubar = 1.00001, pressure gradient = 0.000991687
smoothSolver:  Solving for omega, Initial residual = 0.000737124, Final residual = 7.11386e-05, No Iterations 4
smoothSolver:  Solving for k, Initial residual = 0.0346794, Final residual = 0.00248887, No Iterations 5
ExecutionTime = 0.043572 s  ClockTime = 0 s

Time = 15s

smoothSolver:  Solving for Ux, Initial residual = 0.00860285, Final residual = 0.000741294, No Iterations 6
smoothSolver:  Solving for Uy, Initial residual = 0.333909, Final residual = 0.0219808, No Iterations 3
Pressure gradient source: uncorrected Ubar = 1.00006, pressure gradient = -4.78784e-05
GAMG:  Solving for p, Initial residual = 0.0379609, Final residual = 0.00355717, No Iterations 15
time step continuity errors : sum local = 7.02142e-05, global = -5.2499e-18, cumulative = 1.59907e-17
Pressure gradient source: uncorrected Ubar = 1.00001, pressure gradient = 0.000847938
smoothSolver:  Solving for omega, Initial residual = 0.0006942, Final residual = 4.43207e-05, No Iterations 5
smoothSolver:  Solving for k, Initial residual = 0.0305706, Final residual = 0.00197524, No Iterations 5
ExecutionTime = 0.045925 s  ClockTime = 0 s

Time = 16s

smoothSolver:  Solving for Ux, Initial residual = 0.00830106, Final residual = 0.000715378, No Iterations 6
smoothSolver:  Solving for Uy, Initial residual = 0.333021, Final residual = 0.0299768, No Iterations 3
Pressure gradient source: uncorrected Ubar = 1.00005, pressure gradient = 1.38687e-05
GAMG:  Solving for p, Initial residual = 0.0214911, Final residual = 0.002009, No Iterations 11
time step continuity errors : sum local = 5.75878e-05, global = 4.23477e-19, cumulative = 1.64142e-17
Pressure gradient source: uncorrected Ubar = 1.00001, pressure gradient = 0.000730973
smoothSolver:  Solving for omega, Initial residual = 0.00062456, Final residual = 4.18162e-05, No Iterations 5
smoothSolver:  Solving for k, Initial residual = 0.0260726, Final residual = 0.00166822, No Iterations 5
ExecutionTime = 0.048115 s  ClockTime = 0 s

Time = 17s

smoothSolver:  Solving for Ux, Initial residual = 0.00817306, Final residual = 0.000692567, No Iterations 6
smoothSolver:  Solving for Uy, Initial residual = 0.36449, Final residual = 0.0353382, No Iterations 3
Pressure gradient source: uncorrected Ubar = 1.00003, pressure gradient = 0.000249923
GAMG:  Solving for p, Initial residual = 0.0191521, Final residual = 0.00167925, No Iterations 15
time step continuity errors : sum local = 4.01233e-05, global = -1.50581e-17, cumulative = 1.35609e-18
Pressure gradient source: uncorrected Ubar = 1, pressure gradient = 0.000664826
smoothSolver:  Solving for omega, Initial residual = 0.000571969, Final residual = 3.95653e-05, No Iterations 5
smoothSolver:  Solving for k, Initial residual = 0.0236537, Final residual = 0.001697, No Iterations 5
ExecutionTime = 0.050385 s  ClockTime = 0 s

Time = 18s

smoothSolver:  Solving for Ux, Initial residual = 0.00805159, Final residual = 0.000671203, No Iterations 6
smoothSolver:  Solving for Uy, Initial residual = 0.448698, Final residual = 0.0357682, No Iterations 3
Pressure gradient source: uncorrected Ubar = 1.00002, pressure gradient = 0.000382957
GAMG:  Solving for p, Initial residual = 0.0204126, Final residual = 0.00174008, No Iterations 15
time step continuity errors : sum local = 4.09785e-05, global = -7.06743e-18, cumulative = -5.71134e-18
Pressure gradient source: uncorrected Ubar = 1, pressure gradient = 0.000626124
smoothSolver:  Solving for omega, Initial residual = 0.000552535, Final residual = 4.68838e-05, No Iterations 4
smoothSolver:  Solving for k, Initial residual = 0.0201422, Final residual = 0.00125963, No Iterations 5
ExecutionTime = 0.052705 s  ClockTime = 0 s

Time = 19s

smoothSolver:  Solving for Ux, Initial residual = 0.00797109, Final residual = 0.000656242, No Iterations 6
smoothSolver:  Solving for Uy, Initial residual = 0.447631, Final residual = 0.0395354, No Iterations 3
Pressure gradient source: uncorrected Ubar = 0.99999, pressure gradient = 0.000819257
GAMG:  Solving for p, Initial residual = 0.0239416, Final residual = 0.00216067, No Iterations 17
time step continuity errors : sum local = 3.64493e-05, global = -6.42769e-18, cumulative = -1.2139e-17
Pressure gradient source: uncorrected Ubar = 0.999998, pressure gradient = 0.000659556
smoothSolver:  Solving for omega, Initial residual = 0.000511387, Final residual = 4.59575e-05, No Iterations 4
smoothSolver:  Solving for k, Initial residual = 0.0185268, Final residual = 0.00121921, No Iterations 5
ExecutionTime = 0.055161 s  ClockTime = 0 s

Time = 20s

smoothSolver:  Solving for Ux, Initial residual = 0.00791036, Final residual = 0.000643843, No Iterations 6
smoothSolver:  Solving for Uy, Initial residual = 0.377926, Final residual = 0.0179418, No Iterations 4
Pressure gradient source: uncorrected Ubar = 0.999982, pressure gradient = 0.00100659
GAMG:  Solving for p, Initial residual = 0.0257145, Final residual = 0.00206828, No Iterations 19
time step continuity errors : sum local = 2.94128e-05, global = 5.97899e-18, cumulative = -6.16004e-18
Pressure gradient source: uncorrected Ubar = 0.999997, pressure gradient = 0.00071437
smoothSolver:  Solving for omega, Initial residual = 0.000520459, Final residual = 4.75646e-05, No Iterations 4
smoothSolver:  Solving for k, Initial residual = 0.0173379, Final residual = 0.00141036, No Iterations 5
ExecutionTime = 0.057655 s  ClockTime = 0 s

Time = 21s

smoothSolver:  Solving for Ux, Initial residual = 0.00781316, Final residual = 0.000629953, No Iterations 6
smoothSolver:  Solving for Uy, Initial residual = 0.366833, Final residual = 0.0300569, No Iterations 3
Pressure gradient source: uncorrected Ubar = 0.999979, pressure gradient = 0.00111812
GAMG:  Solving for p, Initial residual = 0.028006, Final residual = 0.0026362, No Iterations 17
time step continuity errors : sum local = 2.93732e-05, global = 3.99638e-18, cumulative = -2.16366e-18
Pressure gradient source: uncorrected Ubar = 0.999997, pressure gradient = 0.000775542
smoothSolver:  Solving for omega, Initial residual = 0.000503779, Final residual = 3.36933e-05, No Iterations 5
smoothSolver:  Solving for k, Initial residual = 0.0151958, Final residual = 0.00107333, No Iterations 5
ExecutionTime = 0.060441 s  ClockTime = 0 s

Time = 22s

smoothSolver:  Solving for Ux, Initial residual = 0.00772414, Final residual = 0.00061629, No Iterations 6
smoothSolver:  Solving for Uy, Initial residual = 0.383712, Final residual = 0.0345943, No Iterations 3
Pressure gradient source: uncorrected Ubar = 0.99998, pressure gradient = 0.0011707
GAMG:  Solving for p, Initial residual = 0.0274508, Final residual = 0.00245261, No Iterations 17
time step continuity errors : sum local = 2.13128e-05, global = -9.82517e-18, cumulative = -1.19888e-17
Pressure gradient source: uncorrected Ubar = 0.999997, pressure gradient = 0.000832304
smoothSolver:  Solving for omega, Initial residual = 0.000485012, Final residual = 4.62501e-05, No Iterations 4
smoothSolver:  Solving for k, Initial residual = 0.0147035, Final residual = 0.00110331, No Iterations 5
ExecutionTime = 0.063016 s  ClockTime = 0 s

Time = 23s

smoothSolver:  Solving for Ux, Initial residual = 0.0076354, Final residual = 0.000603019, No Iterations 6
smoothSolver:  Solving for Uy, Initial residual = 0.437863, Final residual = 0.0245084, No Iterations 4
Pressure gradient source: uncorrected Ubar = 0.999977, pressure gradient = 0.00129277
GAMG:  Solving for p, Initial residual = 0.0245248, Final residual = 0.00235987, No Iterations 15
time step continuity errors : sum local = 2.06654e-05, global = 1.00373e-17, cumulative = -1.95149e-18
Pressure gradient source: uncorrected Ubar = 0.999997, pressure gradient = 0.000896956
smoothSolver:  Solving for omega, Initial residual = 0.000480083, Final residual = 4.27707e-05, No Iterations 4
smoothSolver:  Solving for k, Initial residual = 0.0138245, Final residual = 0.00112127, No Iterations 5
ExecutionTime = 0.065415 s  ClockTime = 0 s

Time = 24s

smoothSolver:  Solving for Ux, Initial residual = 0.00754185, Final residual = 0.000590879, No Iterations 6
smoothSolver:  Solving for Uy, Initial residual = 0.520581, Final residual = 0.0478595, No Iterations 3
Pressure gradient source: uncorrected Ubar = 0.999973, pressure gradient = 0.00146881
GAMG:  Solving for p, Initial residual = 0.0211012, Final residual = 0.00198892, No Iterations 13
time step continuity errors : sum local = 1.451e-05, global = -1.22597e-17, cumulative = -1.42111e-17
Pressure gradient source: uncorrected Ubar = 0.999996, pressure gradient = 0.000976637
smoothSolver:  Solving for omega, Initial residual = 0.000468491, Final residual = 4.25577e-05, No Iterations 4
smoothSolver:  Solving for k, Initial residual = 0.0120399, Final residual = 0.000841041, No Iterations 5
ExecutionTime = 0.067774 s  ClockTime = 0 s

Time = 25s

smoothSolver:  Solving for Ux, Initial residual = 0.00745549, Final residual = 0.000580253, No Iterations 6
smoothSolver:  Solving for Uy, Initial residual = 0.404882, Final residual = 0.0342643, No Iterations 3
Pressure gradient source: uncorrected Ubar = 0.99997, pressure gradient = 0.00161558
GAMG:  Solving for p, Initial residual = 0.0179124, Final residual = 0.0017586, No Iterations 4
time step continuity errors : sum local = 1.22957e-05, global = 1.90181e-18, cumulative = -1.23093e-17
Pressure gradient source: uncorrected Ubar = 0.999996, pressure gradient = 0.0010645
smoothSolver:  Solving for omega, Initial residual = 0.000475635, Final residual = 2.99885e-05, No Iterations 5
smoothSolver:  Solving for k, Initial residual = 0.0117357, Final residual = 0.000838709, No Iterations 5
ExecutionTime = 0.069838 s  ClockTime = 0 s

Time = 26s

smoothSolver:  Solving for Ux, Initial residual = 0.00736937, Final residual = 0.000569109, No Iterations 6
smoothSolver:  Solving for Uy, Initial residual = 0.270275, Final residual = 0.0250703, No Iterations 3
Pressure gradient source: uncorrected Ubar = 0.999971, pressure gradient = 0.00168491
GAMG:  Solving for p, Initial residual = 0.0161062, Final residual = 0.000986871, No Iterations 3
time step continuity errors : sum local = 6.10046e-06, global = 9.66803e-18, cumulative = -2.6413e-18
Pressure gradient source: uncorrected Ubar = 0.999996, pressure gradient = 0.00114653
smoothSolver:  Solving for omega, Initial residual = 0.00046659, Final residual = 3.27587e-05, No Iterations 5
smoothSolver:  Solving for k, Initial residual = 0.0111161, Final residual = 0.000844981, No Iterations 5
ExecutionTime = 0.071882 s  ClockTime = 0 s

Time = 27s

smoothSolver:  Solving for Ux, Initial residual = 0.00726474, Final residual = 0.000556412, No Iterations 6
smoothSolver:  Solving for Uy, Initial residual = 0.191329, Final residual = 0.0185189, No Iterations 3
Pressure gradient source: uncorrected Ubar = 0.99998, pressure gradient = 0.00158058
GAMG:  Solving for p, Initial residual = 0.0149626, Final residual = 0.00146595, No Iterations 5
time step continuity errors : sum local = 9.29515e-06, global = 1.65786e-18, cumulative = -9.83443e-19
Pressure gradient source: uncorrected Ubar = 0.999998, pressure gradient = 0.00119542
smoothSolver:  Solving for omega, Initial residual = 0.000444776, Final residual = 3.79308e-05, No Iterations 4
smoothSolver:  Solving for k, Initial residual = 0.0106131, Final residual = 0.000843155, No Iterations 5
ExecutionTime = 0.073972 s  ClockTime = 0 s

Time = 28s

smoothSolver:  Solving for Ux, Initial residual = 0.00718074, Final residual = 0.000545995, No Iterations 6
smoothSolver:  Solving for Uy, Initial residual = 0.160203, Final residual = 0.0148772, No Iterations 3
Pressure gradient source: uncorrected Ubar = 0.999972, pressure gradient = 0.00182755
GAMG:  Solving for p, Initial residual = 0.015304, Final residual = 0.00148271, No Iterations 14
time step continuity errors : sum local = 7.8807e-06, global = 4.39493e-18, cumulative = 3.41149e-18
Pressure gradient source: uncorrected Ubar = 0.999997, pressure gradient = 0.00127415
smoothSolver:  Solving for omega, Initial residual = 0.000454002, Final residual = 2.85215e-05, No Iterations 5
smoothSolver:  Solving for k, Initial residual = 0.00943546, Final residual = 0.000601773, No Iterations 5
ExecutionTime = 0.076347 s  ClockTime = 0 s

Time = 29s

smoothSolver:  Solving for Ux, Initial residual = 0.00709642, Final residual = 0.000535935, No Iterations 6
smoothSolver:  Solving for Uy, Initial residual = 0.15099, Final residual = 0.00982041, No Iterations 4
Pressure gradient source: uncorrected Ubar = 0.999974, pressure gradient = 0.00186572
GAMG:  Solving for p, Initial residual = 0.0211169, Final residual = 0.00138657, No Iterations 20
time step continuity errors : sum local = 6.62348e-06, global = 3.29186e-18, cumulative = 6.70335e-18
Pressure gradient source: uncorrected Ubar = 0.999997, pressure gradient = 0.00134337
smoothSolver:  Solving for omega, Initial residual = 0.00045252, Final residual = 3.21249e-05, No Iterations 5
smoothSolver:  Solving for k, Initial residual = 0.00925393, Final residual = 0.00076728, No Iterations 5
ExecutionTime = 0.078926 s  ClockTime = 0 s

Time = 30s

smoothSolver:  Solving for Ux, Initial residual = 0.00699392, Final residual = 0.000524086, No Iterations 6
smoothSolver:  Solving for Uy, Initial residual = 0.153712, Final residual = 0.00998887, No Iterations 4
Pressure gradient source: uncorrected Ubar = 0.999984, pressure gradient = 0.00172927
GAMG:  Solving for p, Initial residual = 0.0287053, Final residual = 0.00282393, No Iterations 23
time step continuity errors : sum local = 7.41272e-06, global = 6.00282e-19, cumulative = 7.30363e-18
Pressure gradient source: uncorrected Ubar = 0.999999, pressure gradient = 0.00137584
smoothSolver:  Solving for omega, Initial residual = 0.000440765, Final residual = 2.85217e-05, No Iterations 5
smoothSolver:  Solving for k, Initial residual = 0.00918575, Final residual = 0.000808711, No Iterations 5
ExecutionTime = 0.081574 s  ClockTime = 0 s

Time = 31s

smoothSolver:  Solving for Ux, Initial residual = 0.00690071, Final residual = 0.00051336, No Iterations 6
smoothSolver:  Solving for Uy, Initial residual = 0.15726, Final residual = 0.00846267, No Iterations 4
Pressure gradient source: uncorrected Ubar = 0.999982, pressure gradient = 0.00181003
GAMG:  Solving for p, Initial residual = 0.0580332, Final residual = 0.0053669, No Iterations 20
time step continuity errors : sum local = 6.40398e-06, global = -9.85279e-18, cumulative = -2.54916e-18
Pressure gradient source: uncorrected Ubar = 0.999998, pressure gradient = 0.00141362
smoothSolver:  Solving for omega, Initial residual = 0.000417114, Final residual = 3.64285e-05, No Iterations 4
smoothSolver:  Solving for k, Initial residual = 0.00841135, Final residual = 0.000654822, No Iterations 5
ExecutionTime = 0.084113 s  ClockTime = 0 s

Time = 32s

smoothSolver:  Solving for Ux, Initial residual = 0.00683523, Final residual = 0.000505854, No Iterations 6
smoothSolver:  Solving for Uy, Initial residual = 0.157773, Final residual = 0.0144479, No Iterations 3
Pressure gradient source: uncorrected Ubar = 0.999973, pressure gradient = 0.00206642
GAMG:  Solving for p, Initial residual = 0.037556, Final residual = 0.00358469, No Iterations 16
time step continuity errors : sum local = 5.76371e-06, global = 3.34065e-18, cumulative = 7.91482e-19
Pressure gradient source: uncorrected Ubar = 0.999997, pressure gradient = 0.00148558
smoothSolver:  Solving for omega, Initial residual = 0.000416224, Final residual = 3.66464e-05, No Iterations 4
smoothSolver:  Solving for k, Initial residual = 0.00762608, Final residual = 0.000548877, No Iterations 5
ExecutionTime = 0.086418 s  ClockTime = 0 s

Time = 33s

smoothSolver:  Solving for Ux, Initial residual = 0.00676993, Final residual = 0.000498697, No Iterations 6
smoothSolver:  Solving for Uy, Initial residual = 0.114267, Final residual = 0.00655165, No Iterations 4
Pressure gradient source: uncorrected Ubar = 0.999974, pressure gradient = 0.00212998
GAMG:  Solving for p, Initial residual = 0.0191737, Final residual = 0.00177689, No Iterations 13
time step continuity errors : sum local = 3.8779e-06, global = -9.63065e-18, cumulative = -8.83917e-18
Pressure gradient source: uncorrected Ubar = 0.999997, pressure gradient = 0.00155438
smoothSolver:  Solving for omega, Initial residual = 0.000425748, Final residual = 2.94943e-05, No Iterations 5
smoothSolver:  Solving for k, Initial residual = 0.00696539, Final residual = 0.000471228, No Iterations 5
ExecutionTime = 0.088656 s  ClockTime = 0 s

Time = 34s

smoothSolver:  Solving for Ux, Initial residual = 0.00669746, Final residual = 0.000490734, No Iterations 6
smoothSolver:  Solving for Uy, Initial residual = 0.10181, Final residual = 0.00858773, No Iterations 3
Pressure gradient source: uncorrected Ubar = 0.99998, pressure gradient = 0.00206215
GAMG:  Solving for p, Initial residual = 0.0165448, Final residual = 0.00159589, No Iterations 7
time step continuity errors : sum local = 3.70907e-06, global = 2.59344e-18, cumulative = -6.24572e-18
Pressure gradient source: uncorrected Ubar = 0.999998, pressure gradient = 0.00159854
smoothSolver:  Solving for omega, Initial residual = 0.000410132, Final residual = 2.79485e-05, No Iterations 5
smoothSolver:  Solving for k, Initial residual = 0.0066426, Final residual = 0.000587882, No Iterations 5
ExecutionTime = 0.090818 s  ClockTime = 0 s

Time = 35s

smoothSolver:  Solving for Ux, Initial residual = 0.00663397, Final residual = 0.00048365, No Iterations 6
smoothSolver:  Solving for Uy, Initial residual = 0.0983657, Final residual = 0.00905087, No Iterations 3
Pressure gradient source: uncorrected Ubar = 0.999978, pressure gradient = 0.0021518
GAMG:  Solving for p, Initial residual = 0.014049, Final residual = 0.00139104, No Iterations 7
time step continuity errors : sum local = 3.32321e-06, global = -3.41614e-18, cumulative = -9.66186e-18
Pressure gradient source: uncorrected Ubar = 0.999998, pressure gradient = 0.00164831
smoothSolver:  Solving for omega, Initial residual = 0.000399746, Final residual = 2.77247e-05, No Iterations 5
smoothSolver:  Solving for k, Initial residual = 0.0060048, Final residual = 0.000425699, No Iterations 5
ExecutionTime = 0.093442 s  ClockTime = 0 s

Time = 36s

smoothSolver:  Solving for Ux, Initial residual = 0.00658196, Final residual = 0.000477913, No Iterations 6
smoothSolver:  Solving for Uy, Initial residual = 0.118685, Final residual = 0.00920568, No Iterations 3
Pressure gradient source: uncorrected Ubar = 0.999975, pressure gradient = 0.00228073
GAMG:  Solving for p, Initial residual = 0.0136602, Final residual = 0.00101158, No Iterations 3
time step continuity errors : sum local = 2.3451e-06, global = 1.10972e-17, cumulative = 1.43533e-18
Pressure gradient source: uncorrected Ubar = 0.999998, pressure gradient = 0.00170944
smoothSolver:  Solving for omega, Initial residual = 0.00039595, Final residual = 2.9378e-05, No Iterations 5
smoothSolver:  Solving for k, Initial residual = 0.00587721, Final residual = 0.000520535, No Iterations 5
ExecutionTime = 0.09552 s  ClockTime = 0 s

Time = 37s

smoothSolver:  Solving for Ux, Initial residual = 0.00652234, Final residual = 0.000471362, No Iterations 6
smoothSolver:  Solving for Uy, Initial residual = 0.1062, Final residual = 0.00924527, No Iterations 3
Pressure gradient source: uncorrected Ubar = 0.999981, pressure gradient = 0.0021924
GAMG:  Solving for p, Initial residual = 0.0120755, Final residual = 0.00082198, No Iterations 2
time step continuity errors : sum local = 1.67114e-06, global = -3.26285e-18, cumulative = -1.82752e-18
Pressure gradient source: uncorrected Ubar = 0.999999, pressure gradient = 0.00174374
smoothSolver:  Solving for omega, Initial residual = 0.000386486, Final residual = 2.63093e-05, No Iterations 5
smoothSolver:  Solving for k, Initial residual = 0.00548195, Final residual = 0.00043295, No Iterations 5
ExecutionTime = 0.097478 s  ClockTime = 0 s

Time = 38s

smoothSolver:  Solving for Ux, Initial residual = 0.00646438, Final residual = 0.000464988, No Iterations 6
smoothSolver:  Solving for Uy, Initial residual = 0.094459, Final residual = 0.00551484, No Iterations 4
Pressure gradient source: uncorrected Ubar = 0.999983, pressure gradient = 0.00220079
GAMG:  Solving for p, Initial residual = 0.0128521, Final residual = 0.000872769, No Iterations 3
time step continuity errors : sum local = 1.56429e-06, global = -1.97844e-18, cumulative = -3.80597e-18
Pressure gradient source: uncorrected Ubar = 0.999999, pressure gradient = 0.00177215
smoothSolver:  Solving for omega, Initial residual = 0.000374613, Final residual = 2.66294e-05, No Iterations 5
smoothSolver:  Solving for k, Initial residual = 0.0052356, Final residual = 0.000427437, No Iterations 5
ExecutionTime = 0.099487 s  ClockTime = 0 s

Time = 39s

smoothSolver:  Solving for Ux, Initial residual = 0.00641843, Final residual = 0.000460097, No Iterations 6
smoothSolver:  Solving for Uy, Initial residual = 0.0922899, Final residual = 0.00883435, No Iterations 3
Pressure gradient source: uncorrected Ubar = 0.999978, pressure gradient = 0.00235162
GAMG:  Solving for p, Initial residual = 0.012975, Final residual = 0.00103842, No Iterations 3
time step continuity errors : sum local = 1.65926e-06, global = -8.06162e-18, cumulative = -1.18676e-17
Pressure gradient source: uncorrected Ubar = 0.999998, pressure gradient = 0.0018199
smoothSolver:  Solving for omega, Initial residual = 0.000365677, Final residual = 2.59216e-05, No Iterations 5
smoothSolver:  Solving for k, Initial residual = 0.00501337, Final residual = 0.000405918, No Iterations 5
ExecutionTime = 0.101469 s  ClockTime = 0 s

Time = 40s

smoothSolver:  Solving for Ux, Initial residual = 0.00637198, Final residual = 0.000455229, No Iterations 6
smoothSolver:  Solving for Uy, Initial residual = 0.0820792, Final residual = 0.00519906, No Iterations 4
Pressure gradient source: uncorrected Ubar = 0.99998, pressure gradient = 0.00236093
GAMG:  Solving for p, Initial residual = 0.0134337, Final residual = 0.00127598, No Iterations 11
time step continuity errors : sum local = 1.68853e-06, global = -9.70383e-18, cumulative = -2.15714e-17
Pressure gradient source: uncorrected Ubar = 0.999999, pressure gradient = 0.00185987
smoothSolver:  Solving for omega, Initial residual = 0.000361155, Final residual = 2.61648e-05, No Iterations 5
smoothSolver:  Solving for k, Initial residual = 0.00517791, Final residual = 0.000503599, No Iterations 5
ExecutionTime = 0.103751 s  ClockTime = 0 s

Time = 41s

smoothSolver:  Solving for Ux, Initial residual = 0.00631938, Final residual = 0.000449612, No Iterations 6
smoothSolver:  Solving for Uy, Initial residual = 0.0768307, Final residual = 0.00456967, No Iterations 4
Pressure gradient source: uncorrected Ubar = 0.999985, pressure gradient = 0.00226056
GAMG:  Solving for p, Initial residual = 0.0135397, Final residual = 0.00111342, No Iterations 12
time step continuity errors : sum local = 1.52607e-06, global = 1.43763e-18, cumulative = -2.01338e-17
Pressure gradient source: uncorrected Ubar = 0.999999, pressure gradient = 0.00187489
smoothSolver:  Solving for omega, Initial residual = 0.000352925, Final residual = 2.54503e-05, No Iterations 5
smoothSolver:  Solving for k, Initial residual = 0.00516398, Final residual = 0.000476806, No Iterations 5
ExecutionTime = 0.106015 s  ClockTime = 0 s

Time = 42s

smoothSolver:  Solving for Ux, Initial residual = 0.00628027, Final residual = 0.000445437, No Iterations 6
smoothSolver:  Solving for Uy, Initial residual = 0.0684722, Final residual = 0.00380716, No Iterations 4
Pressure gradient source: uncorrected Ubar = 0.999981, pressure gradient = 0.00240997
GAMG:  Solving for p, Initial residual = 0.0144837, Final residual = 0.00142639, No Iterations 14
time step continuity errors : sum local = 1.52198e-06, global = 1.75963e-18, cumulative = -1.83742e-17
Pressure gradient source: uncorrected Ubar = 0.999999, pressure gradient = 0.0019113
smoothSolver:  Solving for omega, Initial residual = 0.000340395, Final residual = 2.2091e-05, No Iterations 5
smoothSolver:  Solving for k, Initial residual = 0.0049569, Final residual = 0.000372348, No Iterations 5
ExecutionTime = 0.108476 s  ClockTime = 0 s

Time = 43s

smoothSolver:  Solving for Ux, Initial residual = 0.00624743, Final residual = 0.000442067, No Iterations 6
smoothSolver:  Solving for Uy, Initial residual = 0.0604002, Final residual = 0.00601384, No Iterations 3
Pressure gradient source: uncorrected Ubar = 0.99998, pressure gradient = 0.00247789
GAMG:  Solving for p, Initial residual = 0.0187015, Final residual = 0.00166318, No Iterations 17
time step continuity errors : sum local = 1.52329e-06, global = -8.16715e-18, cumulative = -2.65413e-17
Pressure gradient source: uncorrected Ubar = 0.999999, pressure gradient = 0.00195222
smoothSolver:  Solving for omega, Initial residual = 0.000335743, Final residual = 2.12696e-05, No Iterations 5
smoothSolver:  Solving for k, Initial residual = 0.00506061, Final residual = 0.000388213, No Iterations 5
ExecutionTime = 0.111176 s  ClockTime = 0 s

Time = 44s

smoothSolver:  Solving for Ux, Initial residual = 0.00621112, Final residual = 0.000438356, No Iterations 6
smoothSolver:  Solving for Uy, Initial residual = 0.0663037, Final residual = 0.00633152, No Iterations 3
Pressure gradient source: uncorrected Ubar = 0.999983, pressure gradient = 0.00243162
GAMG:  Solving for p, Initial residual = 0.0205913, Final residual = 0.00198628, No Iterations 12
time step continuity errors : sum local = 1.4947e-06, global = -3.35802e-18, cumulative = -2.98993e-17
Pressure gradient source: uncorrected Ubar = 0.999999, pressure gradient = 0.00197758
smoothSolver:  Solving for omega, Initial residual = 0.000333257, Final residual = 2.46167e-05, No Iterations 5
smoothSolver:  Solving for k, Initial residual = 0.00497008, Final residual = 0.000448932, No Iterations 5
ExecutionTime = 0.11352 s  ClockTime = 0 s

Time = 45s

smoothSolver:  Solving for Ux, Initial residual = 0.006176, Final residual = 0.000434535, No Iterations 6
smoothSolver:  Solving for Uy, Initial residual = 0.0395173, Final residual = 0.00319064, No Iterations 3
Pressure gradient source: uncorrected Ubar = 0.999984, pressure gradient = 0.00243638
GAMG:  Solving for p, Initial residual = 0.0181795, Final residual = 0.00181709, No Iterations 15
time step continuity errors : sum local = 1.22018e-06, global = 8.57782e-19, cumulative = -2.90416e-17
Pressure gradient source: uncorrected Ubar = 0.999999, pressure gradient = 0.00199855
smoothSolver:  Solving for omega, Initial residual = 0.000318243, Final residual = 2.02125e-05, No Iterations 5
smoothSolver:  Solving for k, Initial residual = 0.00520514, Final residual = 0.00034859, No Iterations 6
ExecutionTime = 0.115922 s  ClockTime = 0 s

Time = 46s

smoothSolver:  Solving for Ux, Initial residual = 0.00614487, Final residual = 0.000431218, No Iterations 6
smoothSolver:  Solving for Uy, Initial residual = 0.040397, Final residual = 0.00354566, No Iterations 3
Pressure gradient source: uncorrected Ubar = 0.999983, pressure gradient = 0.00249935
GAMG:  Solving for p, Initial residual = 0.0231095, Final residual = 0.0020876, No Iterations 11
time step continuity errors : sum local = 1.07066e-06, global = -1.38143e-18, cumulative = -3.0423e-17
Pressure gradient source: uncorrected Ubar = 0.999999, pressure gradient = 0.00202596
smoothSolver:  Solving for omega, Initial residual = 0.000314618, Final residual = 1.99765e-05, No Iterations 5
smoothSolver:  Solving for k, Initial residual = 0.00535537, Final residual = 0.000354713, No Iterations 6
ExecutionTime = 0.118134 s  ClockTime = 0 s

Time = 47s

smoothSolver:  Solving for Ux, Initial residual = 0.006108, Final residual = 0.000427504, No Iterations 6
smoothSolver:  Solving for Uy, Initial residual = 0.040691, Final residual = 0.00293757, No Iterations 4
Pressure gradient source: uncorrected Ubar = 0.999985, pressure gradient = 0.00246469
GAMG:  Solving for p, Initial residual = 0.0179657, Final residual = 0.00171888, No Iterations 8
time step continuity errors : sum local = 8.60701e-07, global = 2.56492e-19, cumulative = -3.01665e-17
Pressure gradient source: uncorrected Ubar = 0.999999, pressure gradient = 0.00204216
smoothSolver:  Solving for omega, Initial residual = 0.000316693, Final residual = 2.3082e-05, No Iterations 5
smoothSolver:  Solving for k, Initial residual = 0.00523348, Final residual = 0.000445408, No Iterations 5
ExecutionTime = 0.120317 s  ClockTime = 0 s

Time = 48s

smoothSolver:  Solving for Ux, Initial residual = 0.00608485, Final residual = 0.000424989, No Iterations 6
smoothSolver:  Solving for Uy, Initial residual = 0.0458548, Final residual = 0.00278632, No Iterations 4
Pressure gradient source: uncorrected Ubar = 0.999982, pressure gradient = 0.00257016
GAMG:  Solving for p, Initial residual = 0.0199717, Final residual = 0.00196825, No Iterations 3
time step continuity errors : sum local = 9.6022e-07, global = 3.05863e-18, cumulative = -2.71079e-17
Pressure gradient source: uncorrected Ubar = 0.999999, pressure gradient = 0.00207279
smoothSolver:  Solving for omega, Initial residual = 0.000304491, Final residual = 2.10936e-05, No Iterations 5
smoothSolver:  Solving for k, Initial residual = 0.00536005, Final residual = 0.000457527, No Iterations 5
ExecutionTime = 0.122335 s  ClockTime = 0 s

Time = 49s

smoothSolver:  Solving for Ux, Initial residual = 0.00606408, Final residual = 0.00042296, No Iterations 6
smoothSolver:  Solving for Uy, Initial residual = 0.0418451, Final residual = 0.00235874, No Iterations 4
Pressure gradient source: uncorrected Ubar = 0.999981, pressure gradient = 0.00262923
GAMG:  Solving for p, Initial residual = 0.0202178, Final residual = 0.00185005, No Iterations 3
time step continuity errors : sum local = 9.728e-07, global = -2.02605e-19, cumulative = -2.73105e-17
Pressure gradient source: uncorrected Ubar = 0.999999, pressure gradient = 0.00210777
smoothSolver:  Solving for omega, Initial residual = 0.000296271, Final residual = 2.0329e-05, No Iterations 5
smoothSolver:  Solving for k, Initial residual = 0.00564454, Final residual = 0.000557433, No Iterations 5
ExecutionTime = 0.124418 s  ClockTime = 0 s

Time = 50s

smoothSolver:  Solving for Ux, Initial residual = 0.00603966, Final residual = 0.000420599, No Iterations 6
smoothSolver:  Solving for Uy, Initial residual = 0.0368259, Final residual = 0.00263247, No Iterations 4
Pressure gradient source: uncorrected Ubar = 0.999984, pressure gradient = 0.00259023
GAMG:  Solving for p, Initial residual = 0.0172249, Final residual = 0.00154653, No Iterations 6
time step continuity errors : sum local = 9.23951e-07, global = -3.01636e-18, cumulative = -3.03268e-17
Pressure gradient source: uncorrected Ubar = 0.999999, pressure gradient = 0.00212972
smoothSolver:  Solving for omega, Initial residual = 0.00029412, Final residual = 1.87128e-05, No Iterations 5
smoothSolver:  Solving for k, Initial residual = 0.00589865, Final residual = 0.000393012, No Iterations 6
ExecutionTime = 0.12656 s  ClockTime = 0 s

Time = 51s

smoothSolver:  Solving for Ux, Initial residual = 0.00601247, Final residual = 0.00041797, No Iterations 6
smoothSolver:  Solving for Uy, Initial residual = 0.0323544, Final residual = 0.00184352, No Iterations 4
Pressure gradient source: uncorrected Ubar = 0.999986, pressure gradient = 0.00256362
GAMG:  Solving for p, Initial residual = 0.014251, Final residual = 0.00136289, No Iterations 9
time step continuity errors : sum local = 8.83857e-07, global = -1.95319e-18, cumulative = -3.228e-17
Pressure gradient source: uncorrected Ubar = 1, pressure gradient = 0.00214282
smoothSolver:  Solving for omega, Initial residual = 0.000293155, Final residual = 2.20537e-05, No Iterations 5
smoothSolver:  Solving for k, Initial residual = 0.00598995, Final residual = 0.000596484, No Iterations 5
ExecutionTime = 0.129041 s  ClockTime = 0 s

Time = 52s

smoothSolver:  Solving for Ux, Initial residual = 0.00598764, Final residual = 0.000415394, No Iterations 6
smoothSolver:  Solving for Uy, Initial residual = 0.0401551, Final residual = 0.00228605, No Iterations 4
Pressure gradient source: uncorrected Ubar = 0.999986, pressure gradient = 0.00257853
GAMG:  Solving for p, Initial residual = 0.0140896, Final residual = 0.00109847, No Iterations 12
time step continuity errors : sum local = 7.18915e-07, global = 4.61869e-18, cumulative = -2.76613e-17
Pressure gradient source: uncorrected Ubar = 1, pressure gradient = 0.00215579
smoothSolver:  Solving for omega, Initial residual = 0.000277411, Final residual = 1.7586e-05, No Iterations 5
smoothSolver:  Solving for k, Initial residual = 0.00615802, Final residual = 0.000401774, No Iterations 6
ExecutionTime = 0.131379 s  ClockTime = 0 s

Time = 53s

smoothSolver:  Solving for Ux, Initial residual = 0.00597081, Final residual = 0.000413571, No Iterations 6
smoothSolver:  Solving for Uy, Initial residual = 0.0263932, Final residual = 0.00145503, No Iterations 4
Pressure gradient source: uncorrected Ubar = 0.999984, pressure gradient = 0.00264445
GAMG:  Solving for p, Initial residual = 0.0119901, Final residual = 0.00113652, No Iterations 9
time step continuity errors : sum local = 7.29937e-07, global = 5.73265e-18, cumulative = -2.19287e-17
Pressure gradient source: uncorrected Ubar = 0.999999, pressure gradient = 0.00217754
smoothSolver:  Solving for omega, Initial residual = 0.000279423, Final residual = 2.02231e-05, No Iterations 5
smoothSolver:  Solving for k, Initial residual = 0.00615579, Final residual = 0.00058636, No Iterations 5
ExecutionTime = 0.133581 s  ClockTime = 0 s

Time = 54s

smoothSolver:  Solving for Ux, Initial residual = 0.0059552, Final residual = 0.000411945, No Iterations 6
smoothSolver:  Solving for Uy, Initial residual = 0.0273784, Final residual = 0.00170951, No Iterations 4
Pressure gradient source: uncorrected Ubar = 0.999985, pressure gradient = 0.00265171
GAMG:  Solving for p, Initial residual = 0.011688, Final residual = 0.00116113, No Iterations 7
time step continuity errors : sum local = 7.06476e-07, global = 3.69121e-18, cumulative = -1.82375e-17
Pressure gradient source: uncorrected Ubar = 0.999999, pressure gradient = 0.00219645
smoothSolver:  Solving for omega, Initial residual = 0.00027978, Final residual = 2.34373e-05, No Iterations 5
smoothSolver:  Solving for k, Initial residual = 0.00636826, Final residual = 0.000593558, No Iterations 5
ExecutionTime = 0.135691 s  ClockTime = 0 s

Time = 55s

smoothSolver:  Solving for Ux, Initial residual = 0.00593585, Final residual = 0.000409775, No Iterations 6
smoothSolver:  Solving for Uy, Initial residual = 0.0237827, Final residual = 0.00145831, No Iterations 4
Pressure gradient source: uncorrected Ubar = 0.999986, pressure gradient = 0.00261673
GAMG:  Solving for p, Initial residual = 0.0106715, Final residual = 0.00103142, No Iterations 10
time step continuity errors : sum local = 5.8885e-07, global = -2.8953e-18, cumulative = -2.11328e-17
Pressure gradient source: uncorrected Ubar = 1, pressure gradient = 0.0022057
smoothSolver:  Solving for omega, Initial residual = 0.00027153, Final residual = 2.19339e-05, No Iterations 5
smoothSolver:  Solving for k, Initial residual = 0.00663269, Final residual = 0.000647793, No Iterations 5
ExecutionTime = 0.137931 s  ClockTime = 0 s

Time = 56s

smoothSolver:  Solving for Ux, Initial residual = 0.00591579, Final residual = 0.000407724, No Iterations 6
smoothSolver:  Solving for Uy, Initial residual = 0.0283698, Final residual = 0.0018353, No Iterations 4
Pressure gradient source: uncorrected Ubar = 0.999986, pressure gradient = 0.00263667
GAMG:  Solving for p, Initial residual = 0.0127165, Final residual = 0.00123578, No Iterations 9
time step continuity errors : sum local = 7.40084e-07, global = 1.3985e-18, cumulative = -1.97343e-17
Pressure gradient source: uncorrected Ubar = 1, pressure gradient = 0.00221653
smoothSolver:  Solving for omega, Initial residual = 0.000261455, Final residual = 1.93724e-05, No Iterations 5
smoothSolver:  Solving for k, Initial residual = 0.00698621, Final residual = 0.000496579, No Iterations 6
ExecutionTime = 0.140128 s  ClockTime = 0 s

Time = 57s

smoothSolver:  Solving for Ux, Initial residual = 0.00589715, Final residual = 0.00040566, No Iterations 6
smoothSolver:  Solving for Uy, Initial residual = 0.0466429, Final residual = 0.00300856, No Iterations 4
Pressure gradient source: uncorrected Ubar = 0.999987, pressure gradient = 0.00262094
GAMG:  Solving for p, Initial residual = 0.0163864, Final residual = 0.00155636, No Iterations 6
time step continuity errors : sum local = 9.4881e-07, global = -5.0848e-18, cumulative = -2.48191e-17
Pressure gradient source: uncorrected Ubar = 1, pressure gradient = 0.00222262
smoothSolver:  Solving for omega, Initial residual = 0.000255952, Final residual = 1.71087e-05, No Iterations 5
smoothSolver:  Solving for k, Initial residual = 0.00704839, Final residual = 0.000704394, No Iterations 5
ExecutionTime = 0.14229 s  ClockTime = 0 s

Time = 58s

smoothSolver:  Solving for Ux, Initial residual = 0.0058836, Final residual = 0.000404079, No Iterations 6
smoothSolver:  Solving for Uy, Initial residual = 0.046948, Final residual = 0.0045619, No Iterations 3
Pressure gradient source: uncorrected Ubar = 0.999986, pressure gradient = 0.00266649
GAMG:  Solving for p, Initial residual = 0.0210831, Final residual = 0.00188273, No Iterations 10
time step continuity errors : sum local = 1.12633e-06, global = -1.09972e-17, cumulative = -3.58162e-17
Pressure gradient source: uncorrected Ubar = 1, pressure gradient = 0.00223546
smoothSolver:  Solving for omega, Initial residual = 0.000249899, Final residual = 1.69261e-05, No Iterations 5
smoothSolver:  Solving for k, Initial residual = 0.00731382, Final residual = 0.000483618, No Iterations 6
ExecutionTime = 0.145015 s  ClockTime = 0 s

Time = 59s

smoothSolver:  Solving for Ux, Initial residual = 0.0058692, Final residual = 0.000402608, No Iterations 6
smoothSolver:  Solving for Uy, Initial residual = 0.0354481, Final residual = 0.00206148, No Iterations 4
Pressure gradient source: uncorrected Ubar = 0.999985, pressure gradient = 0.00269461
GAMG:  Solving for p, Initial residual = 0.0161638, Final residual = 0.00130381, No Iterations 16
time step continuity errors : sum local = 8.19921e-07, global = -3.74013e-18, cumulative = -3.95564e-17
Pressure gradient source: uncorrected Ubar = 1, pressure gradient = 0.00225093
smoothSolver:  Solving for omega, Initial residual = 0.000250871, Final residual = 1.99441e-05, No Iterations 5
smoothSolver:  Solving for k, Initial residual = 0.00736787, Final residual = 0.000709264, No Iterations 5
ExecutionTime = 0.147486 s  ClockTime = 0 s

Time = 60s

smoothSolver:  Solving for Ux, Initial residual = 0.00585172, Final residual = 0.000400784, No Iterations 6
smoothSolver:  Solving for Uy, Initial residual = 0.0532477, Final residual = 0.00337019, No Iterations 4
Pressure gradient source: uncorrected Ubar = 0.999987, pressure gradient = 0.00264832
GAMG:  Solving for p, Initial residual = 0.0142742, Final residual = 0.00123172, No Iterations 9
time step continuity errors : sum local = 7.3598e-07, global = -9.28937e-18, cumulative = -4.88457e-17
Pressure gradient source: uncorrected Ubar = 1, pressure gradient = 0.00225573
smoothSolver:  Solving for omega, Initial residual = 0.000241485, Final residual = 1.63462e-05, No Iterations 5
smoothSolver:  Solving for k, Initial residual = 0.00753476, Final residual = 0.000743711, No Iterations 5
ExecutionTime = 0.149598 s  ClockTime = 0 s

Time = 61s

smoothSolver:  Solving for Ux, Initial residual = 0.00584154, Final residual = 0.000399436, No Iterations 6
smoothSolver:  Solving for Uy, Initial residual = 0.0449628, Final residual = 0.0028882, No Iterations 4
Pressure gradient source: uncorrected Ubar = 0.999986, pressure gradient = 0.00269629
GAMG:  Solving for p, Initial residual = 0.019035, Final residual = 0.00167072, No Iterations 6
time step continuity errors : sum local = 9.76487e-07, global = 4.43011e-19, cumulative = -4.84027e-17
Pressure gradient source: uncorrected Ubar = 1, pressure gradient = 0.00226793
smoothSolver:  Solving for omega, Initial residual = 0.000234443, Final residual = 1.53248e-05, No Iterations 5
smoothSolver:  Solving for k, Initial residual = 0.00796973, Final residual = 0.000562025, No Iterations 6
ExecutionTime = 0.15164 s  ClockTime = 0 s

Time = 62s

smoothSolver:  Solving for Ux, Initial residual = 0.00582857, Final residual = 0.000398175, No Iterations 6
smoothSolver:  Solving for Uy, Initial residual = 0.0437866, Final residual = 0.00403321, No Iterations 3
Pressure gradient source: uncorrected Ubar = 0.999986, pressure gradient = 0.00270718
GAMG:  Solving for p, Initial residual = 0.0175164, Final residual = 0.00164415, No Iterations 10
time step continuity errors : sum local = 9.71389e-07, global = -2.4146e-18, cumulative = -5.08173e-17
Pressure gradient source: uncorrected Ubar = 1, pressure gradient = 0.00228001
smoothSolver:  Solving for omega, Initial residual = 0.000235815, Final residual = 1.7188e-05, No Iterations 5
smoothSolver:  Solving for k, Initial residual = 0.00833379, Final residual = 0.000593055, No Iterations 6
ExecutionTime = 0.15379 s  ClockTime = 0 s

Time = 63s

smoothSolver:  Solving for Ux, Initial residual = 0.00580874, Final residual = 0.000396114, No Iterations 6
smoothSolver:  Solving for Uy, Initial residual = 0.0311987, Final residual = 0.00190891, No Iterations 4
Pressure gradient source: uncorrected Ubar = 0.999988, pressure gradient = 0.00265582
GAMG:  Solving for p, Initial residual = 0.0123826, Final residual = 0.000994813, No Iterations 9
time step continuity errors : sum local = 6.49639e-07, global = -1.04703e-17, cumulative = -6.12876e-17
Pressure gradient source: uncorrected Ubar = 1, pressure gradient = 0.00228117
smoothSolver:  Solving for omega, Initial residual = 0.000232824, Final residual = 1.80377e-05, No Iterations 5
smoothSolver:  Solving for k, Initial residual = 0.00830219, Final residual = 0.000537231, No Iterations 6
ExecutionTime = 0.155893 s  ClockTime = 0 s

Time = 64s

smoothSolver:  Solving for Ux, Initial residual = 0.00579217, Final residual = 0.000394322, No Iterations 6
smoothSolver:  Solving for Uy, Initial residual = 0.0400366, Final residual = 0.00348444, No Iterations 4
Pressure gradient source: uncorrected Ubar = 0.999988, pressure gradient = 0.00268427
GAMG:  Solving for p, Initial residual = 0.0123771, Final residual = 0.000815448, No Iterations 4
time step continuity errors : sum local = 4.62328e-07, global = 2.53783e-18, cumulative = -5.87498e-17
Pressure gradient source: uncorrected Ubar = 1, pressure gradient = 0.00228709
smoothSolver:  Solving for omega, Initial residual = 0.000230947, Final residual = 1.94554e-05, No Iterations 5
smoothSolver:  Solving for k, Initial residual = 0.00836326, Final residual = 0.000808474, No Iterations 5
ExecutionTime = 0.158022 s  ClockTime = 0 s

Time = 65s

smoothSolver:  Solving for Ux, Initial residual = 0.00577652, Final residual = 0.000392556, No Iterations 6
smoothSolver:  Solving for Uy, Initial residual = 0.0387842, Final residual = 0.00326683, No Iterations 4
Pressure gradient source: uncorrected Ubar = 0.999988, pressure gradient = 0.00267486
GAMG:  Solving for p, Initial residual = 0.0111866, Final residual = 0.00100466, No Iterations 5
time step continuity errors : sum local = 5.68152e-07, global = -1.76739e-18, cumulative = -6.05172e-17
Pressure gradient source: uncorrected Ubar = 1, pressure gradient = 0.00229035
smoothSolver:  Solving for omega, Initial residual = 0.000224255, Final residual = 1.8451e-05, No Iterations 5
smoothSolver:  Solving for k, Initial residual = 0.00875062, Final residual = 0.00057089, No Iterations 6
ExecutionTime = 0.160302 s  ClockTime = 0 s

Time = 66s

smoothSolver:  Solving for Ux, Initial residual = 0.00576189, Final residual = 0.000390758, No Iterations 6
smoothSolver:  Solving for Uy, Initial residual = 0.0553939, Final residual = 0.00406733, No Iterations 4
Pressure gradient source: uncorrected Ubar = 0.999988, pressure gradient = 0.00268823
GAMG:  Solving for p, Initial residual = 0.0188077, Final residual = 0.00102819, No Iterations 4
time step continuity errors : sum local = 5.74908e-07, global = -4.37419e-18, cumulative = -6.48914e-17
Pressure gradient source: uncorrected Ubar = 1, pressure gradient = 0.00229546
smoothSolver:  Solving for omega, Initial residual = 0.000216658, Final residual = 1.53796e-05, No Iterations 5
smoothSolver:  Solving for k, Initial residual = 0.00912317, Final residual = 0.000667602, No Iterations 6
ExecutionTime = 0.162548 s  ClockTime = 0 s

Time = 67s

smoothSolver:  Solving for Ux, Initial residual = 0.0057481, Final residual = 0.000389066, No Iterations 6
smoothSolver:  Solving for Uy, Initial residual = 0.0518274, Final residual = 0.00326023, No Iterations 4
Pressure gradient source: uncorrected Ubar = 0.999988, pressure gradient = 0.00268553
GAMG:  Solving for p, Initial residual = 0.0184368, Final residual = 0.00179651, No Iterations 3
time step continuity errors : sum local = 9.59583e-07, global = -4.9615e-18, cumulative = -6.98529e-17
Pressure gradient source: uncorrected Ubar = 1, pressure gradient = 0.00229946
smoothSolver:  Solving for omega, Initial residual = 0.000212237, Final residual = 1.36525e-05, No Iterations 5
smoothSolver:  Solving for k, Initial residual = 0.00936368, Final residual = 0.000655945, No Iterations 6
ExecutionTime = 0.164598 s  ClockTime = 0 s

Time = 68s

smoothSolver:  Solving for Ux, Initial residual = 0.00572955, Final residual = 0.000387089, No Iterations 6
smoothSolver:  Solving for Uy, Initial residual = 0.0423436, Final residual = 0.00385396, No Iterations 3
Pressure gradient source: uncorrected Ubar = 0.999988, pressure gradient = 0.00268288
GAMG:  Solving for p, Initial residual = 0.0154779, Final residual = 0.00101261, No Iterations 4
time step continuity errors : sum local = 6.12893e-07, global = 9.56597e-18, cumulative = -6.02869e-17
Pressure gradient source: uncorrected Ubar = 1, pressure gradient = 0.00230247
smoothSolver:  Solving for omega, Initial residual = 0.000211599, Final residual = 1.577e-05, No Iterations 5
smoothSolver:  Solving for k, Initial residual = 0.00946313, Final residual = 0.000650246, No Iterations 6
ExecutionTime = 0.166628 s  ClockTime = 0 s

Time = 69s

smoothSolver:  Solving for Ux, Initial residual = 0.00571307, Final residual = 0.000384896, No Iterations 6
smoothSolver:  Solving for Uy, Initial residual = 0.0367633, Final residual = 0.00245665, No Iterations 4
Pressure gradient source: uncorrected Ubar = 0.999989, pressure gradient = 0.00265228
GAMG:  Solving for p, Initial residual = 0.0123893, Final residual = 0.000943463, No Iterations 4
time step continuity errors : sum local = 6.00013e-07, global = -4.00956e-18, cumulative = -6.42965e-17
Pressure gradient source: uncorrected Ubar = 1, pressure gradient = 0.00229998
smoothSolver:  Solving for omega, Initial residual = 0.000208411, Final residual = 1.59035e-05, No Iterations 5
smoothSolver:  Solving for k, Initial residual = 0.0101542, Final residual = 0.000796533, No Iterations 6
ExecutionTime = 0.168645 s  ClockTime = 0 s

Time = 70s

smoothSolver:  Solving for Ux, Initial residual = 0.00569281, Final residual = 0.000382602, No Iterations 6
smoothSolver:  Solving for Uy, Initial residual = 0.0275744, Final residual = 0.00253614, No Iterations 3
Pressure gradient source: uncorrected Ubar = 0.999989, pressure gradient = 0.00267995
GAMG:  Solving for p, Initial residual = 0.0111202, Final residual = 0.000896613, No Iterations 7
time step continuity errors : sum local = 6.21156e-07, global = 6.86348e-18, cumulative = -5.7433e-17
Pressure gradient source: uncorrected Ubar = 1, pressure gradient = 0.00230303
smoothSolver:  Solving for omega, Initial residual = 0.000203757, Final residual = 1.59155e-05, No Iterations 5
smoothSolver:  Solving for k, Initial residual = 0.0101212, Final residual = 0.000733963, No Iterations 6
ExecutionTime = 0.170705 s  ClockTime = 0 s

Time = 71s

smoothSolver:  Solving for Ux, Initial residual = 0.00567764, Final residual = 0.000380719, No Iterations 6
smoothSolver:  Solving for Uy, Initial residual = 0.0472952, Final residual = 0.00307208, No Iterations 4
Pressure gradient source: uncorrected Ubar = 0.999988, pressure gradient = 0.00270615
GAMG:  Solving for p, Initial residual = 0.0136859, Final residual = 0.00119254, No Iterations 4
time step continuity errors : sum local = 7.2917e-07, global = -8.73165e-18, cumulative = -6.61646e-17
Pressure gradient source: uncorrected Ubar = 1, pressure gradient = 0.00231035
smoothSolver:  Solving for omega, Initial residual = 0.00019861, Final residual = 1.5044e-05, No Iterations 5
smoothSolver:  Solving for k, Initial residual = 0.0101931, Final residual = 0.000684691, No Iterations 6
ExecutionTime = 0.172683 s  ClockTime = 0 s

Time = 72s

smoothSolver:  Solving for Ux, Initial residual = 0.00566303, Final residual = 0.000378765, No Iterations 6
smoothSolver:  Solving for Uy, Initial residual = 0.0492473, Final residual = 0.00335469, No Iterations 4
Pressure gradient source: uncorrected Ubar = 0.999988, pressure gradient = 0.00271467
GAMG:  Solving for p, Initial residual = 0.0122143, Final residual = 0.00117195, No Iterations 4
time step continuity errors : sum local = 7.17727e-07, global = 8.37344e-18, cumulative = -5.77912e-17
Pressure gradient source: uncorrected Ubar = 1, pressure gradient = 0.00231815
smoothSolver:  Solving for omega, Initial residual = 0.000196571, Final residual = 1.39575e-05, No Iterations 5
smoothSolver:  Solving for k, Initial residual = 0.010739, Final residual = 0.000760473, No Iterations 6
ExecutionTime = 0.174813 s  ClockTime = 0 s

Time = 73s

smoothSolver:  Solving for Ux, Initial residual = 0.00563622, Final residual = 0.000375908, No Iterations 6
smoothSolver:  Solving for Uy, Initial residual = 0.0694273, Final residual = 0.00595351, No Iterations 4
Pressure gradient source: uncorrected Ubar = 0.99999, pressure gradient = 0.00264184
GAMG:  Solving for p, Initial residual = 0.0172718, Final residual = 0.00166442, No Iterations 5
time step continuity errors : sum local = 1.06665e-06, global = -1.73679e-18, cumulative = -5.9528e-17
Pressure gradient source: uncorrected Ubar = 1, pressure gradient = 0.00231233
smoothSolver:  Solving for omega, Initial residual = 0.000194968, Final residual = 1.43891e-05, No Iterations 5
smoothSolver:  Solving for k, Initial residual = 0.0107239, Final residual = 0.00106473, No Iterations 5
ExecutionTime = 0.17716 s  ClockTime = 0 s

Time = 74s

smoothSolver:  Solving for Ux, Initial residual = 0.0056129, Final residual = 0.000373319, No Iterations 6
smoothSolver:  Solving for Uy, Initial residual = 0.0413837, Final residual = 0.00329607, No Iterations 4
Pressure gradient source: uncorrected Ubar = 0.999989, pressure gradient = 0.00266603
GAMG:  Solving for p, Initial residual = 0.0112788, Final residual = 0.00112482, No Iterations 15
time step continuity errors : sum local = 7.16801e-07, global = -3.40629e-18, cumulative = -6.29343e-17
Pressure gradient source: uncorrected Ubar = 1, pressure gradient = 0.00231199
smoothSolver:  Solving for omega, Initial residual = 0.000192085, Final residual = 1.69853e-05, No Iterations 5
smoothSolver:  Solving for k, Initial residual = 0.0115308, Final residual = 0.000888475, No Iterations 6
ExecutionTime = 0.179661 s  ClockTime = 0 s

Time = 75s

smoothSolver:  Solving for Ux, Initial residual = 0.00558985, Final residual = 0.000370892, No Iterations 6
smoothSolver:  Solving for Uy, Initial residual = 0.0494262, Final residual = 0.00392535, No Iterations 4
Pressure gradient source: uncorrected Ubar = 0.999989, pressure gradient = 0.00268726
GAMG:  Solving for p, Initial residual = 0.0089803, Final residual = 0.000692223, No Iterations 21
time step continuity errors : sum local = 4.86435e-07, global = 6.0466e-18, cumulative = -5.68877e-17
Pressure gradient source: uncorrected Ubar = 1, pressure gradient = 0.00231575
smoothSolver:  Solving for omega, Initial residual = 0.000187279, Final residual = 1.58222e-05, No Iterations 5
smoothSolver:  Solving for k, Initial residual = 0.011421, Final residual = 0.000778585, No Iterations 6
ExecutionTime = 0.182226 s  ClockTime = 0 s

Time = 76s

smoothSolver:  Solving for Ux, Initial residual = 0.00556954, Final residual = 0.000368587, No Iterations 6
smoothSolver:  Solving for Uy, Initial residual = 0.0427505, Final residual = 0.00233623, No Iterations 4
Pressure gradient source: uncorrected Ubar = 0.999989, pressure gradient = 0.00269842
GAMG:  Solving for p, Initial residual = 0.0135319, Final residual = 0.00129377, No Iterations 9
time step continuity errors : sum local = 8.8516e-07, global = 1.67306e-18, cumulative = -5.52146e-17
Pressure gradient source: uncorrected Ubar = 1, pressure gradient = 0.00232117
smoothSolver:  Solving for omega, Initial residual = 0.000184994, Final residual = 1.60295e-05, No Iterations 5
smoothSolver:  Solving for k, Initial residual = 0.0118726, Final residual = 0.000870178, No Iterations 6
ExecutionTime = 0.184368 s  ClockTime = 0 s

Time = 77s

smoothSolver:  Solving for Ux, Initial residual = 0.00554228, Final residual = 0.000554157, No Iterations 5
smoothSolver:  Solving for Uy, Initial residual = 0.0429382, Final residual = 0.00399916, No Iterations 3
Pressure gradient source: uncorrected Ubar = 0.999981, pressure gradient = 0.00295913
GAMG:  Solving for p, Initial residual = 0.0177125, Final residual = 0.00133063, No Iterations 4
time step continuity errors : sum local = 7.18208e-07, global = 4.13833e-18, cumulative = -5.10763e-17
Pressure gradient source: uncorrected Ubar = 0.999999, pressure gradient = 0.00235393
smoothSolver:  Solving for omega, Initial residual = 0.000174615, Final residual = 1.27701e-05, No Iterations 5
smoothSolver:  Solving for k, Initial residual = 0.0123522, Final residual = 0.000950692, No Iterations 6
ExecutionTime = 0.186315 s  ClockTime = 0 s

Time = 78s

smoothSolver:  Solving for Ux, Initial residual = 0.00551281, Final residual = 0.000550415, No Iterations 5
smoothSolver:  Solving for Uy, Initial residual = 0.0450327, Final residual = 0.00296266, No Iterations 4
Pressure gradient source: uncorrected Ubar = 0.999986, pressure gradient = 0.002824
GAMG:  Solving for p, Initial residual = 0.0151264, Final residual = 0.00141198, No Iterations 11
time step continuity errors : sum local = 7.57524e-07, global = -1.17557e-17, cumulative = -6.2832e-17
Pressure gradient source: uncorrected Ubar = 1, pressure gradient = 0.00235721
smoothSolver:  Solving for omega, Initial residual = 0.000175276, Final residual = 1.275e-05, No Iterations 5
smoothSolver:  Solving for k, Initial residual = 0.0123047, Final residual = 0.000902738, No Iterations 6
ExecutionTime = 0.188471 s  ClockTime = 0 s

Time = 79s

smoothSolver:  Solving for Ux, Initial residual = 0.00548936, Final residual = 0.000547396, No Iterations 5
smoothSolver:  Solving for Uy, Initial residual = 0.0729385, Final residual = 0.00547124, No Iterations 4
Pressure gradient source: uncorrected Ubar = 0.999985, pressure gradient = 0.00286599
GAMG:  Solving for p, Initial residual = 0.0213165, Final residual = 0.0020887, No Iterations 6
time step continuity errors : sum local = 1.14206e-06, global = 7.15945e-19, cumulative = -6.21161e-17
Pressure gradient source: uncorrected Ubar = 1, pressure gradient = 0.00236796
smoothSolver:  Solving for omega, Initial residual = 0.000169183, Final residual = 1.26026e-05, No Iterations 5
smoothSolver:  Solving for k, Initial residual = 0.0126297, Final residual = 0.000916195, No Iterations 6
ExecutionTime = 0.190527 s  ClockTime = 0 s

Time = 80s

smoothSolver:  Solving for Ux, Initial residual = 0.00546474, Final residual = 0.000544094, No Iterations 5
smoothSolver:  Solving for Uy, Initial residual = 0.0417604, Final residual = 0.0030279, No Iterations 4
Pressure gradient source: uncorrected Ubar = 0.999985, pressure gradient = 0.00287125
GAMG:  Solving for p, Initial residual = 0.0114129, Final residual = 0.00104698, No Iterations 14
time step continuity errors : sum local = 6.10393e-07, global = 1.04318e-17, cumulative = -5.16843e-17
Pressure gradient source: uncorrected Ubar = 1, pressure gradient = 0.00237839
smoothSolver:  Solving for omega, Initial residual = 0.000173626, Final residual = 1.64284e-05, No Iterations 5
smoothSolver:  Solving for k, Initial residual = 0.0127582, Final residual = 0.00087194, No Iterations 6
ExecutionTime = 0.192919 s  ClockTime = 0 s

Time = 81s

smoothSolver:  Solving for Ux, Initial residual = 0.00542736, Final residual = 0.000539152, No Iterations 5
smoothSolver:  Solving for Uy, Initial residual = 0.0376956, Final residual = 0.00319833, No Iterations 4
Pressure gradient source: uncorrected Ubar = 0.999987, pressure gradient = 0.00281637
GAMG:  Solving for p, Initial residual = 0.01206, Final residual = 0.00107143, No Iterations 11
time step continuity errors : sum local = 6.55306e-07, global = 8.58545e-18, cumulative = -4.30989e-17
Pressure gradient source: uncorrected Ubar = 1, pressure gradient = 0.00237766
smoothSolver:  Solving for omega, Initial residual = 0.000167908, Final residual = 1.49685e-05, No Iterations 5
smoothSolver:  Solving for k, Initial residual = 0.0131608, Final residual = 0.000972895, No Iterations 6
ExecutionTime = 0.195581 s  ClockTime = 0 s

Time = 82s

smoothSolver:  Solving for Ux, Initial residual = 0.0053923, Final residual = 0.000534976, No Iterations 5
smoothSolver:  Solving for Uy, Initial residual = 0.0276088, Final residual = 0.00200831, No Iterations 4
Pressure gradient source: uncorrected Ubar = 0.999986, pressure gradient = 0.00287136
GAMG:  Solving for p, Initial residual = 0.0105891, Final residual = 0.000732561, No Iterations 4
time step continuity errors : sum local = 4.85518e-07, global = -5.27547e-18, cumulative = -4.83743e-17
Pressure gradient source: uncorrected Ubar = 1, pressure gradient = 0.00238751
smoothSolver:  Solving for omega, Initial residual = 0.000164116, Final residual = 1.3395e-05, No Iterations 5
smoothSolver:  Solving for k, Initial residual = 0.0131506, Final residual = 0.000882295, No Iterations 6
ExecutionTime = 0.197679 s  ClockTime = 0 s

Time = 83s

smoothSolver:  Solving for Ux, Initial residual = 0.00535233, Final residual = 0.000529493, No Iterations 5
smoothSolver:  Solving for Uy, Initial residual = 0.0258886, Final residual = 0.00216168, No Iterations 4
Pressure gradient source: uncorrected Ubar = 0.999988, pressure gradient = 0.00279103
GAMG:  Solving for p, Initial residual = 0.00793015, Final residual = 0.000763687, No Iterations 9
time step continuity errors : sum local = 5.12189e-07, global = 7.69159e-18, cumulative = -4.06827e-17
Pressure gradient source: uncorrected Ubar = 1, pressure gradient = 0.00238181
smoothSolver:  Solving for omega, Initial residual = 0.000162883, Final residual = 1.45247e-05, No Iterations 5
smoothSolver:  Solving for k, Initial residual = 0.0132976, Final residual = 0.00088432, No Iterations 6
ExecutionTime = 0.199806 s  ClockTime = 0 s

Time = 84s

smoothSolver:  Solving for Ux, Initial residual = 0.00531294, Final residual = 0.000523681, No Iterations 5
smoothSolver:  Solving for Uy, Initial residual = 0.0242038, Final residual = 0.00133893, No Iterations 4
Pressure gradient source: uncorrected Ubar = 0.999988, pressure gradient = 0.00278762
GAMG:  Solving for p, Initial residual = 0.00892497, Final residual = 0.000769158, No Iterations 3
time step continuity errors : sum local = 5.35125e-07, global = -8.17435e-18, cumulative = -4.88571e-17
Pressure gradient source: uncorrected Ubar = 1, pressure gradient = 0.0023772
smoothSolver:  Solving for omega, Initial residual = 0.000158084, Final residual = 1.34247e-05, No Iterations 5
smoothSolver:  Solving for k, Initial residual = 0.0139464, Final residual = 0.00101543, No Iterations 6
ExecutionTime = 0.201752 s  ClockTime = 0 s

Time = 85s

smoothSolver:  Solving for Ux, Initial residual = 0.00526732, Final residual = 0.000517736, No Iterations 5
smoothSolver:  Solving for Uy, Initial residual = 0.0298747, Final residual = 0.00208802, No Iterations 4
Pressure gradient source: uncorrected Ubar = 0.999988, pressure gradient = 0.00280436
GAMG:  Solving for p, Initial residual = 0.0074648, Final residual = 0.000550604, No Iterations 3
time step continuity errors : sum local = 3.78034e-07, global = 5.11959e-19, cumulative = -4.83451e-17
Pressure gradient source: uncorrected Ubar = 1, pressure gradient = 0.00237717
smoothSolver:  Solving for omega, Initial residual = 0.000155107, Final residual = 1.3964e-05, No Iterations 5
smoothSolver:  Solving for k, Initial residual = 0.0142385, Final residual = 0.00104607, No Iterations 6
ExecutionTime = 0.203699 s  ClockTime = 0 s

Time = 86s

smoothSolver:  Solving for Ux, Initial residual = 0.00516047, Final residual = 0.000509793, No Iterations 5
smoothSolver:  Solving for Uy, Initial residual = 0.0215368, Final residual = 0.00163071, No Iterations 4
Pressure gradient source: uncorrected Ubar = 0.999988, pressure gradient = 0.00279348
GAMG:  Solving for p, Initial residual = 0.00741888, Final residual = 0.000734122, No Iterations 3
time step continuity errors : sum local = 5.15467e-07, global = 1.48964e-18, cumulative = -4.68555e-17
Pressure gradient source: uncorrected Ubar = 1, pressure gradient = 0.00237592
smoothSolver:  Solving for omega, Initial residual = 0.000154373, Final residual = 1.45196e-05, No Iterations 5
smoothSolver:  Solving for k, Initial residual = 0.0144713, Final residual = 0.00104522, No Iterations 6
ExecutionTime = 0.205623 s  ClockTime = 0 s

Time = 87s

smoothSolver:  Solving for Ux, Initial residual = 0.00508095, Final residual = 0.000500961, No Iterations 5
smoothSolver:  Solving for Uy, Initial residual = 0.0242534, Final residual = 0.0016625, No Iterations 4
Pressure gradient source: uncorrected Ubar = 0.99999, pressure gradient = 0.00273355
GAMG:  Solving for p, Initial residual = 0.00835242, Final residual = 0.000785918, No Iterations 3
time step continuity errors : sum local = 5.27867e-07, global = 1.15442e-17, cumulative = -3.53112e-17
Pressure gradient source: uncorrected Ubar = 1, pressure gradient = 0.00236495
smoothSolver:  Solving for omega, Initial residual = 0.000147923, Final residual = 1.10631e-05, No Iterations 5
smoothSolver:  Solving for k, Initial residual = 0.0150683, Final residual = 0.00116637, No Iterations 6
ExecutionTime = 0.20763 s  ClockTime = 0 s

Time = 88s

smoothSolver:  Solving for Ux, Initial residual = 0.00499881, Final residual = 0.000491779, No Iterations 5
smoothSolver:  Solving for Uy, Initial residual = 0.0414165, Final residual = 0.0032129, No Iterations 4
Pressure gradient source: uncorrected Ubar = 0.999989, pressure gradient = 0.00273811
GAMG:  Solving for p, Initial residual = 0.0123008, Final residual = 0.0011316, No Iterations 9
time step continuity errors : sum local = 8.5487e-07, global = 4.52864e-18, cumulative = -3.07826e-17
Pressure gradient source: uncorrected Ubar = 1, pressure gradient = 0.00235769
smoothSolver:  Solving for omega, Initial residual = 0.000145017, Final residual = 1.12756e-05, No Iterations 5
smoothSolver:  Solving for k, Initial residual = 0.0149894, Final residual = 0.00105992, No Iterations 6
ExecutionTime = 0.209816 s  ClockTime = 0 s

Time = 89s

smoothSolver:  Solving for Ux, Initial residual = 0.00493947, Final residual = 0.00048491, No Iterations 5
smoothSolver:  Solving for Uy, Initial residual = 0.0457821, Final residual = 0.00303579, No Iterations 4
Pressure gradient source: uncorrected Ubar = 0.999988, pressure gradient = 0.00278588
[...]
Pressure gradient source: uncorrected Ubar = 1, pressure gradient = 0.00271205
smoothSolver:  Solving for omega, Initial residual = 8.47675e-06, Final residual = 8.47675e-06, No Iterations 0
smoothSolver:  Solving for k, Initial residual = 5.13313e-05, Final residual = 8.26383e-06, No Iterations 4
ExecutionTime = 1.23275 s  ClockTime = 1 s

Time = 561s

smoothSolver:  Solving for Ux, Initial residual = 3.92318e-06, Final residual = 3.92318e-06, No Iterations 0
smoothSolver:  Solving for Uy, Initial residual = 0.0183125, Final residual = 0.00158801, No Iterations 3
Pressure gradient source: uncorrected Ubar = 1, pressure gradient = 0.00271205
GAMG:  Solving for p, Initial residual = 0.00133715, Final residual = 0.000121324, No Iterations 3
time step continuity errors : sum local = 1.06499e-09, global = -6.10611e-18, cumulative = 8.17083e-17
Pressure gradient source: uncorrected Ubar = 1, pressure gradient = 0.00271202
smoothSolver:  Solving for omega, Initial residual = 8.45855e-06, Final residual = 8.45855e-06, No Iterations 0
smoothSolver:  Solving for k, Initial residual = 4.95397e-05, Final residual = 7.86605e-06, No Iterations 4
ExecutionTime = 1.23461 s  ClockTime = 1 s

Time = 562s

smoothSolver:  Solving for Ux, Initial residual = 4.00069e-06, Final residual = 4.00069e-06, No Iterations 0
smoothSolver:  Solving for Uy, Initial residual = 0.0120348, Final residual = 0.000531036, No Iterations 4
Pressure gradient source: uncorrected Ubar = 1, pressure gradient = 0.00271202
GAMG:  Solving for p, Initial residual = 0.00105606, Final residual = 8.86024e-05, No Iterations 4
time step continuity errors : sum local = 7.96319e-10, global = -7.07385e-18, cumulative = 7.46344e-17
Pressure gradient source: uncorrected Ubar = 1, pressure gradient = 0.00271199
smoothSolver:  Solving for omega, Initial residual = 8.43962e-06, Final residual = 8.43962e-06, No Iterations 0
smoothSolver:  Solving for k, Initial residual = 5.00984e-05, Final residual = 8.59384e-06, No Iterations 4
ExecutionTime = 1.2365 s  ClockTime = 1 s

Time = 563s

smoothSolver:  Solving for Ux, Initial residual = 4.07834e-06, Final residual = 4.07834e-06, No Iterations 0
smoothSolver:  Solving for Uy, Initial residual = 0.0147628, Final residual = 0.0012949, No Iterations 3
Pressure gradient source: uncorrected Ubar = 1, pressure gradient = 0.00271199
GAMG:  Solving for p, Initial residual = 0.00130465, Final residual = 0.000118044, No Iterations 4
time step continuity errors : sum local = 1.05921e-09, global = -3.57219e-18, cumulative = 7.10622e-17
Pressure gradient source: uncorrected Ubar = 1, pressure gradient = 0.00271196
smoothSolver:  Solving for omega, Initial residual = 8.42075e-06, Final residual = 8.42075e-06, No Iterations 0
smoothSolver:  Solving for k, Initial residual = 4.76922e-05, Final residual = 7.19949e-06, No Iterations 4
ExecutionTime = 1.23839 s  ClockTime = 1 s

Time = 564s

smoothSolver:  Solving for Ux, Initial residual = 4.14528e-06, Final residual = 4.14528e-06, No Iterations 0
smoothSolver:  Solving for Uy, Initial residual = 0.0161842, Final residual = 0.0014021, No Iterations 3
Pressure gradient source: uncorrected Ubar = 1, pressure gradient = 0.00271196
GAMG:  Solving for p, Initial residual = 0.00133002, Final residual = 6.70304e-05, No Iterations 4
time step continuity errors : sum local = 6.04388e-10, global = -7.87004e-19, cumulative = 7.02752e-17
Pressure gradient source: uncorrected Ubar = 1, pressure gradient = 0.00271193
smoothSolver:  Solving for omega, Initial residual = 8.40166e-06, Final residual = 8.40166e-06, No Iterations 0
smoothSolver:  Solving for k, Initial residual = 4.74158e-05, Final residual = 6.78068e-06, No Iterations 4
ExecutionTime = 1.24033 s  ClockTime = 1 s

Time = 565s

smoothSolver:  Solving for Ux, Initial residual = 4.22237e-06, Final residual = 4.22237e-06, No Iterations 0
smoothSolver:  Solving for Uy, Initial residual = 0.0106817, Final residual = 0.000543334, No Iterations 4
Pressure gradient source: uncorrected Ubar = 1, pressure gradient = 0.00271193
GAMG:  Solving for p, Initial residual = 0.000860203, Final residual = 8.16335e-05, No Iterations 9
time step continuity errors : sum local = 7.57226e-10, global = -8.19912e-18, cumulative = 6.20761e-17
Pressure gradient source: uncorrected Ubar = 1, pressure gradient = 0.0027119
smoothSolver:  Solving for omega, Initial residual = 8.38272e-06, Final residual = 8.38272e-06, No Iterations 0
smoothSolver:  Solving for k, Initial residual = 4.95926e-05, Final residual = 9.34356e-06, No Iterations 4
ExecutionTime = 1.24251 s  ClockTime = 1 s

Time = 566s

smoothSolver:  Solving for Ux, Initial residual = 4.30277e-06, Final residual = 4.30277e-06, No Iterations 0
smoothSolver:  Solving for Uy, Initial residual = 0.0148424, Final residual = 0.000698865, No Iterations 4
Pressure gradient source: uncorrected Ubar = 1, pressure gradient = 0.0027119
GAMG:  Solving for p, Initial residual = 0.000750714, Final residual = 6.08002e-05, No Iterations 14
time step continuity errors : sum local = 5.17774e-10, global = -3.51599e-18, cumulative = 5.85601e-17
Pressure gradient source: uncorrected Ubar = 1, pressure gradient = 0.00271186
smoothSolver:  Solving for omega, Initial residual = 8.36335e-06, Final residual = 8.36335e-06, No Iterations 0
smoothSolver:  Solving for k, Initial residual = 4.88051e-05, Final residual = 7.87785e-06, No Iterations 4
ExecutionTime = 1.24525 s  ClockTime = 1 s

Time = 567s

smoothSolver:  Solving for Ux, Initial residual = 4.38278e-06, Final residual = 4.38278e-06, No Iterations 0
smoothSolver:  Solving for Uy, Initial residual = 0.0187612, Final residual = 0.00170935, No Iterations 3
Pressure gradient source: uncorrected Ubar = 1, pressure gradient = 0.00271186
GAMG:  Solving for p, Initial residual = 0.00108147, Final residual = 5.01265e-05, No Iterations 4
time step continuity errors : sum local = 4.12116e-10, global = -5.21359e-18, cumulative = 5.33465e-17
Pressure gradient source: uncorrected Ubar = 1, pressure gradient = 0.00271183
smoothSolver:  Solving for omega, Initial residual = 8.34406e-06, Final residual = 8.34406e-06, No Iterations 0
smoothSolver:  Solving for k, Initial residual = 4.50238e-05, Final residual = 6.24526e-06, No Iterations 4
ExecutionTime = 1.24728 s  ClockTime = 1 s

Time = 568s

smoothSolver:  Solving for Ux, Initial residual = 4.45741e-06, Final residual = 4.45741e-06, No Iterations 0
smoothSolver:  Solving for Uy, Initial residual = 0.0180931, Final residual = 0.000952273, No Iterations 4
Pressure gradient source: uncorrected Ubar = 1, pressure gradient = 0.00271183
GAMG:  Solving for p, Initial residual = 0.00108741, Final residual = 5.49448e-05, No Iterations 4
time step continuity errors : sum local = 4.60634e-10, global = -5.21971e-19, cumulative = 5.28246e-17
Pressure gradient source: uncorrected Ubar = 1, pressure gradient = 0.0027118
smoothSolver:  Solving for omega, Initial residual = 8.32458e-06, Final residual = 8.32458e-06, No Iterations 0
smoothSolver:  Solving for k, Initial residual = 4.6278e-05, Final residual = 7.69192e-06, No Iterations 4
ExecutionTime = 1.24927 s  ClockTime = 1 s

Time = 569s

smoothSolver:  Solving for Ux, Initial residual = 4.5396e-06, Final residual = 4.5396e-06, No Iterations 0
smoothSolver:  Solving for Uy, Initial residual = 0.0160307, Final residual = 0.00151815, No Iterations 3
Pressure gradient source: uncorrected Ubar = 1, pressure gradient = 0.0027118
GAMG:  Solving for p, Initial residual = 0.00103211, Final residual = 9.41671e-05, No Iterations 6
time step continuity errors : sum local = 8.67616e-10, global = 5.27567e-19, cumulative = 5.33521e-17
Pressure gradient source: uncorrected Ubar = 1, pressure gradient = 0.00271177
smoothSolver:  Solving for omega, Initial residual = 8.30472e-06, Final residual = 8.30472e-06, No Iterations 0
smoothSolver:  Solving for k, Initial residual = 4.48388e-05, Final residual = 6.72632e-06, No Iterations 4
ExecutionTime = 1.25127 s  ClockTime = 1 s

Time = 570s

smoothSolver:  Solving for Ux, Initial residual = 4.61173e-06, Final residual = 4.61173e-06, No Iterations 0
smoothSolver:  Solving for Uy, Initial residual = 0.0180231, Final residual = 0.00147591, No Iterations 3
Pressure gradient source: uncorrected Ubar = 1, pressure gradient = 0.00271177
GAMG:  Solving for p, Initial residual = 0.00121131, Final residual = 4.92392e-05, No Iterations 4
time step continuity errors : sum local = 4.39942e-10, global = -2.17706e-18, cumulative = 5.11751e-17
Pressure gradient source: uncorrected Ubar = 1, pressure gradient = 0.00271174
smoothSolver:  Solving for omega, Initial residual = 8.28478e-06, Final residual = 8.28478e-06, No Iterations 0
smoothSolver:  Solving for k, Initial residual = 4.30204e-05, Final residual = 9.53042e-06, No Iterations 3
ExecutionTime = 1.25315 s  ClockTime = 1 s

Time = 571s

smoothSolver:  Solving for Ux, Initial residual = 4.66856e-06, Final residual = 4.66856e-06, No Iterations 0
smoothSolver:  Solving for Uy, Initial residual = 0.0106205, Final residual = 0.000948026, No Iterations 3
Pressure gradient source: uncorrected Ubar = 1, pressure gradient = 0.00271174
GAMG:  Solving for p, Initial residual = 0.000887834, Final residual = 7.61816e-05, No Iterations 3
time step continuity errors : sum local = 6.39843e-10, global = -9.77886e-19, cumulative = 5.01972e-17
Pressure gradient source: uncorrected Ubar = 1, pressure gradient = 0.00271171
smoothSolver:  Solving for omega, Initial residual = 8.26485e-06, Final residual = 8.26485e-06, No Iterations 0
smoothSolver:  Solving for k, Initial residual = 4.63519e-05, Final residual = 8.35103e-06, No Iterations 4
ExecutionTime = 1.25501 s  ClockTime = 1 s

Time = 572s

smoothSolver:  Solving for Ux, Initial residual = 4.7483e-06, Final residual = 4.7483e-06, No Iterations 0
smoothSolver:  Solving for Uy, Initial residual = 0.0138871, Final residual = 0.0013389, No Iterations 3
Pressure gradient source: uncorrected Ubar = 1, pressure gradient = 0.00271171
GAMG:  Solving for p, Initial residual = 0.00074467, Final residual = 7.27371e-05, No Iterations 10
time step continuity errors : sum local = 6.53724e-10, global = 3.97112e-18, cumulative = 5.41683e-17
Pressure gradient source: uncorrected Ubar = 1, pressure gradient = 0.00271168
smoothSolver:  Solving for omega, Initial residual = 8.24462e-06, Final residual = 8.24462e-06, No Iterations 0
smoothSolver:  Solving for k, Initial residual = 4.53669e-05, Final residual = 7.16542e-06, No Iterations 4
ExecutionTime = 1.25711 s  ClockTime = 1 s

Time = 573s

smoothSolver:  Solving for Ux, Initial residual = 4.81976e-06, Final residual = 4.81976e-06, No Iterations 0
smoothSolver:  Solving for Uy, Initial residual = 0.0178183, Final residual = 0.00160865, No Iterations 3
Pressure gradient source: uncorrected Ubar = 1, pressure gradient = 0.00271168
GAMG:  Solving for p, Initial residual = 0.0011645, Final residual = 5.6451e-05, No Iterations 4
time step continuity errors : sum local = 4.83548e-10, global = 7.17792e-18, cumulative = 6.13462e-17
Pressure gradient source: uncorrected Ubar = 1, pressure gradient = 0.00271165
smoothSolver:  Solving for omega, Initial residual = 8.22448e-06, Final residual = 8.22448e-06, No Iterations 0
smoothSolver:  Solving for k, Initial residual = 4.28577e-05, Final residual = 9.73313e-06, No Iterations 3
ExecutionTime = 1.25911 s  ClockTime = 1 s

Time = 574s

smoothSolver:  Solving for Ux, Initial residual = 4.89376e-06, Final residual = 4.89376e-06, No Iterations 0
smoothSolver:  Solving for Uy, Initial residual = 0.0171116, Final residual = 0.000910293, No Iterations 4
Pressure gradient source: uncorrected Ubar = 1, pressure gradient = 0.00271165
GAMG:  Solving for p, Initial residual = 0.000930344, Final residual = 6.11089e-05, No Iterations 4
time step continuity errors : sum local = 5.06704e-10, global = -1.97812e-19, cumulative = 6.11484e-17
Pressure gradient source: uncorrected Ubar = 1, pressure gradient = 0.00271163
smoothSolver:  Solving for omega, Initial residual = 8.20433e-06, Final residual = 8.20433e-06, No Iterations 0
smoothSolver:  Solving for k, Initial residual = 4.39436e-05, Final residual = 7.2319e-06, No Iterations 4
ExecutionTime = 1.26154 s  ClockTime = 1 s

Time = 575s

smoothSolver:  Solving for Ux, Initial residual = 4.97764e-06, Final residual = 4.97764e-06, No Iterations 0
smoothSolver:  Solving for Uy, Initial residual = 0.0150327, Final residual = 0.00131416, No Iterations 3
Pressure gradient source: uncorrected Ubar = 1, pressure gradient = 0.00271163
GAMG:  Solving for p, Initial residual = 0.00104525, Final residual = 0.00010259, No Iterations 4
time step continuity errors : sum local = 9.10966e-10, global = 6.29634e-18, cumulative = 6.74448e-17
Pressure gradient source: uncorrected Ubar = 1, pressure gradient = 0.0027116
smoothSolver:  Solving for omega, Initial residual = 8.1841e-06, Final residual = 8.1841e-06, No Iterations 0
smoothSolver:  Solving for k, Initial residual = 4.5953e-05, Final residual = 8.08763e-06, No Iterations 4
ExecutionTime = 1.26358 s  ClockTime = 1 s

Time = 576s

smoothSolver:  Solving for Ux, Initial residual = 5.05205e-06, Final residual = 5.05205e-06, No Iterations 0
smoothSolver:  Solving for Uy, Initial residual = 0.0123548, Final residual = 0.000996151, No Iterations 3
Pressure gradient source: uncorrected Ubar = 1, pressure gradient = 0.0027116
GAMG:  Solving for p, Initial residual = 0.00101173, Final residual = 7.83862e-05, No Iterations 4
time step continuity errors : sum local = 7.15057e-10, global = 6.30135e-18, cumulative = 7.37461e-17
Pressure gradient source: uncorrected Ubar = 1, pressure gradient = 0.00271157
smoothSolver:  Solving for omega, Initial residual = 8.16371e-06, Final residual = 8.16371e-06, No Iterations 0
smoothSolver:  Solving for k, Initial residual = 4.34616e-05, Final residual = 6.70575e-06, No Iterations 4
ExecutionTime = 1.26555 s  ClockTime = 1 s

Time = 577s

smoothSolver:  Solving for Ux, Initial residual = 5.12428e-06, Final residual = 5.12428e-06, No Iterations 0
smoothSolver:  Solving for Uy, Initial residual = 0.011282, Final residual = 0.00104017, No Iterations 3
Pressure gradient source: uncorrected Ubar = 1, pressure gradient = 0.00271157
GAMG:  Solving for p, Initial residual = 0.00106174, Final residual = 8.45015e-05, No Iterations 6
time step continuity errors : sum local = 7.57622e-10, global = -3.46864e-18, cumulative = 7.02775e-17
Pressure gradient source: uncorrected Ubar = 1, pressure gradient = 0.00271154
smoothSolver:  Solving for omega, Initial residual = 8.14295e-06, Final residual = 8.14295e-06, No Iterations 0
smoothSolver:  Solving for k, Initial residual = 4.28779e-05, Final residual = 6.99622e-06, No Iterations 4
ExecutionTime = 1.26757 s  ClockTime = 1 s

Time = 578s

smoothSolver:  Solving for Ux, Initial residual = 5.19849e-06, Final residual = 5.19849e-06, No Iterations 0
smoothSolver:  Solving for Uy, Initial residual = 0.014167, Final residual = 0.001099, No Iterations 3
Pressure gradient source: uncorrected Ubar = 1, pressure gradient = 0.00271154
GAMG:  Solving for p, Initial residual = 0.00155587, Final residual = 0.000145231, No Iterations 3
time step continuity errors : sum local = 1.31337e-09, global = 2.5089e-18, cumulative = 7.27864e-17
Pressure gradient source: uncorrected Ubar = 1, pressure gradient = 0.00271151
smoothSolver:  Solving for omega, Initial residual = 8.1224e-06, Final residual = 8.1224e-06, No Iterations 0
smoothSolver:  Solving for k, Initial residual = 4.10017e-05, Final residual = 9.35731e-06, No Iterations 3
ExecutionTime = 1.26948 s  ClockTime = 1 s

Time = 579s

smoothSolver:  Solving for Ux, Initial residual = 5.26519e-06, Final residual = 5.26519e-06, No Iterations 0
smoothSolver:  Solving for Uy, Initial residual = 0.0142218, Final residual = 0.00119042, No Iterations 3
Pressure gradient source: uncorrected Ubar = 1, pressure gradient = 0.00271151
GAMG:  Solving for p, Initial residual = 0.00107255, Final residual = 5.42434e-05, No Iterations 4
time step continuity errors : sum local = 4.92933e-10, global = 2.90088e-18, cumulative = 7.56872e-17
Pressure gradient source: uncorrected Ubar = 1, pressure gradient = 0.00271148
smoothSolver:  Solving for omega, Initial residual = 8.1018e-06, Final residual = 8.1018e-06, No Iterations 0
smoothSolver:  Solving for k, Initial residual = 4.03844e-05, Final residual = 9.41802e-06, No Iterations 3
ExecutionTime = 1.27142 s  ClockTime = 1 s

Time = 580s

smoothSolver:  Solving for Ux, Initial residual = 5.33986e-06, Final residual = 5.33986e-06, No Iterations 0
smoothSolver:  Solving for Uy, Initial residual = 0.0103092, Final residual = 0.000515324, No Iterations 4
Pressure gradient source: uncorrected Ubar = 1, pressure gradient = 0.00271148
GAMG:  Solving for p, Initial residual = 0.000727961, Final residual = 6.96009e-05, No Iterations 7
time step continuity errors : sum local = 6.43536e-10, global = -1.24973e-18, cumulative = 7.44375e-17
Pressure gradient source: uncorrected Ubar = 1, pressure gradient = 0.00271146
smoothSolver:  Solving for omega, Initial residual = 8.08096e-06, Final residual = 8.08096e-06, No Iterations 0
smoothSolver:  Solving for k, Initial residual = 4.34607e-05, Final residual = 7.59764e-06, No Iterations 4
ExecutionTime = 1.27345 s  ClockTime = 1 s

Time = 581s

smoothSolver:  Solving for Ux, Initial residual = 5.42234e-06, Final residual = 5.42234e-06, No Iterations 0
smoothSolver:  Solving for Uy, Initial residual = 0.0122135, Final residual = 0.00120691, No Iterations 3
Pressure gradient source: uncorrected Ubar = 1, pressure gradient = 0.00271146
GAMG:  Solving for p, Initial residual = 0.00105901, Final residual = 8.3386e-05, No Iterations 3
time step continuity errors : sum local = 7.51688e-10, global = -1.60167e-18, cumulative = 7.28358e-17
Pressure gradient source: uncorrected Ubar = 1, pressure gradient = 0.00271143
smoothSolver:  Solving for omega, Initial residual = 8.0602e-06, Final residual = 8.0602e-06, No Iterations 0
smoothSolver:  Solving for k, Initial residual = 4.14399e-05, Final residual = 6.56199e-06, No Iterations 4
ExecutionTime = 1.27545 s  ClockTime = 1 s

Time = 582s

smoothSolver:  Solving for Ux, Initial residual = 5.4969e-06, Final residual = 5.4969e-06, No Iterations 0
smoothSolver:  Solving for Uy, Initial residual = 0.0129585, Final residual = 0.00107737, No Iterations 3
Pressure gradient source: uncorrected Ubar = 1, pressure gradient = 0.00271143
GAMG:  Solving for p, Initial residual = 0.00125772, Final residual = 8.92678e-05, No Iterations 3
time step continuity errors : sum local = 7.82112e-10, global = 1.28399e-18, cumulative = 7.41198e-17
Pressure gradient source: uncorrected Ubar = 1, pressure gradient = 0.0027114
smoothSolver:  Solving for omega, Initial residual = 8.0393e-06, Final residual = 8.0393e-06, No Iterations 0
smoothSolver:  Solving for k, Initial residual = 3.98032e-05, Final residual = 9.3228e-06, No Iterations 3
ExecutionTime = 1.27773 s  ClockTime = 1 s

Time = 583s

smoothSolver:  Solving for Ux, Initial residual = 5.56473e-06, Final residual = 5.56473e-06, No Iterations 0
smoothSolver:  Solving for Uy, Initial residual = 0.00896055, Final residual = 0.000801048, No Iterations 3
Pressure gradient source: uncorrected Ubar = 1, pressure gradient = 0.0027114
GAMG:  Solving for p, Initial residual = 0.000775448, Final residual = 7.55608e-05, No Iterations 6
time step continuity errors : sum local = 6.41936e-10, global = -1.07157e-17, cumulative = 6.34041e-17
Pressure gradient source: uncorrected Ubar = 1, pressure gradient = 0.00271138
smoothSolver:  Solving for omega, Initial residual = 8.01837e-06, Final residual = 8.01837e-06, No Iterations 0
smoothSolver:  Solving for k, Initial residual = 4.27807e-05, Final residual = 8.20688e-06, No Iterations 4
ExecutionTime = 1.27985 s  ClockTime = 1 s


SIMPLE solution converged in 583 iterations

End

