/*---------------------------------------------------------------------------*\
  =========                 |
  \\      /  F ield         | OpenFOAM: The Open Source CFD Toolbox
   \\    /   O peration     | Website:  https://openfoam.org
    \\  /    A nd           | Version:  10
     \\/     M anipulation  |
\*---------------------------------------------------------------------------*/
Build  : 10-e450dce21ea5
Exec   : blockMesh
Date   : Feb 20 2023
Time   : 14:08:52
Host   : "w530-R9YK46P"
PID    : 18405
I/O    : uncollated
Case   : /home/jdmezazeron/gitDanielMezaZ/turbulenceVisualized/Data/SimulationFiles/K11_Re347
nProcs : 1
sigFpe : Enabling floating point exception trapping (FOAM_SIGFPE).
fileModificationChecking : Monitoring run-time modified files using timeStampMaster (fileModificationSkew 10)
allowSystemOperations : Allowing user-supplied system call operations

// * * * * * * * * * * * * * * * * * * * * * * * * * * * * * * * * * * * * * //
Create time

Deleting polyMesh directory
    "/home/jdmezazeron/gitDanielMezaZ/turbulenceVisualized/Data/SimulationFiles/K11_Re347/constant/polyMesh"
Reading "blockMeshDict"

Creating block mesh from
    "system/blockMeshDict"
Creating block edges
No non-planar block faces defined
Creating topology blocks
Creating topology patches

Creating block mesh topology

Check topology

	Basic statistics
		Number of internal faces : 0
		Number of boundary faces : 6
		Number of defined boundary faces : 6
		Number of undefined boundary faces : 0
	Checking patch -> block consistency

Creating block offsets
Creating merge list .

Creating polyMesh from blockMesh
Creating patches
Creating cells
Creating points with scale 1
    Block 0 cell size :
        i : 0.5
        j : 0.00461374 .. 0.018455
        k : 2

Detected cyclic patches; ordering boundary faces

Writing polyMesh
----------------
Mesh Information
----------------
  boundingBox: (-1 0 -1) (1 1 1)
  nPoints: 1010
  nCells: 400
  nFaces: 1704
  nInternalFaces: 696
----------------
Patches
----------------
  patch 0 (start: 696 size: 100) name: inlet
  patch 1 (start: 796 size: 100) name: outlet
  patch 2 (start: 896 size: 4) name: fixedWalls-bottom
  patch 3 (start: 900 size: 4) name: fixedWalls-top
  patch 4 (start: 904 size: 800) name: frontAndBack

End

/*---------------------------------------------------------------------------*\
  =========                 |
  \\      /  F ield         | OpenFOAM: The Open Source CFD Toolbox
   \\    /   O peration     | Website:  https://openfoam.org
    \\  /    A nd           | Version:  10
     \\/     M anipulation  |
\*---------------------------------------------------------------------------*/
Build  : 10-e450dce21ea5
Exec   : simpleFoam
Date   : Feb 20 2023
Time   : 14:08:52
Host   : "w530-R9YK46P"
PID    : 18406
I/O    : uncollated
Case   : /home/jdmezazeron/gitDanielMezaZ/turbulenceVisualized/Data/SimulationFiles/K11_Re347
nProcs : 1
sigFpe : Enabling floating point exception trapping (FOAM_SIGFPE).
fileModificationChecking : Monitoring run-time modified files using timeStampMaster (fileModificationSkew 10)
allowSystemOperations : Allowing user-supplied system call operations

// * * * * * * * * * * * * * * * * * * * * * * * * * * * * * * * * * * * * * //
Create time

Create mesh for time = 0


SIMPLE: Convergence criteria found
        U: tolerance 0.0001
        p: tolerance 0.01
        omega: tolerance 0.0001

Reading field p

Reading field U

Reading/calculating face flux field phi

Selecting viscosity model Newtonian
Selecting turbulence model type RAS
Selecting RAS turbulence model kOmegaSST
Selecting patchDistMethod meshWave
RAS
{
    RASModel        kOmegaSST;
    turbulence      on;
    printCoeffs     on;
    alphaK1         0.85;
    alphaK2         1;
    alphaOmega1     0.5;
    alphaOmega2     0.856;
    gamma1          0.555556;
    gamma2          0.44;
    beta1           0.075;
    beta2           0.0828;
    betaStar        0.09;
    a1              0.31;
    b1              1;
    c1              10;
    F3              false;
}

No MRF models present

--> FOAM Warning : Creating fvModels from "system/fvOptions" rather than constant/fvModels
No fvModels present
--> FOAM Warning : Creating fvConstraints from "system/fvOptions"

Selecting finite volume constraint type meanVelocityForce
    Name: momentumSource
    - selecting all cells
    - selected 400 cell(s) with volume 4
    Initial pressure gradient = 0


Starting time loop

turbulenceFields stressComponents: storing fields:
    R

Time = 1s

smoothSolver:  Solving for Ux, Initial residual = 0, Final residual = 0, No Iterations 0
smoothSolver:  Solving for Uy, Initial residual = 0, Final residual = 0, No Iterations 0
Pressure gradient source: uncorrected Ubar = 0, pressure gradient = 1641.65
GAMG:  Solving for p, Initial residual = 0.999996, Final residual = 0.0613196, No Iterations 3
time step continuity errors : sum local = 7.71265e-17, global = 1.32791e-17, cumulative = 1.32791e-17
Pressure gradient source: uncorrected Ubar = 0.884649, pressure gradient = 189.366
smoothSolver:  Solving for omega, Initial residual = 0.113455, Final residual = 0.00685524, No Iterations 3
smoothSolver:  Solving for k, Initial residual = 1, Final residual = 0.0463587, No Iterations 2
ExecutionTime = 0.014054 s  ClockTime = 0 s

Time = 2s

smoothSolver:  Solving for Ux, Initial residual = 0.958803, Final residual = 0.0825913, No Iterations 6
smoothSolver:  Solving for Uy, Initial residual = 1, Final residual = 0.0739382, No Iterations 6
Pressure gradient source: uncorrected Ubar = 16.1757, pressure gradient = -1419.52
GAMG:  Solving for p, Initial residual = 1, Final residual = 0.0961698, No Iterations 16
time step continuity errors : sum local = 0.00894411, global = -2.3866e-17, cumulative = -1.05869e-17
Pressure gradient source: uncorrected Ubar = 2.91905, pressure gradient = -14.0876
smoothSolver:  Solving for omega, Initial residual = 0.197895, Final residual = 0.000787501, No Iterations 1
smoothSolver:  Solving for k, Initial residual = 0.860417, Final residual = 0.0181355, No Iterations 1
ExecutionTime = 0.017164 s  ClockTime = 0 s

Time = 3s

smoothSolver:  Solving for Ux, Initial residual = 0.413637, Final residual = 0.0281182, No Iterations 6
smoothSolver:  Solving for Uy, Initial residual = 0.328804, Final residual = 0.0275074, No Iterations 4
Pressure gradient source: uncorrected Ubar = -0.0519599, pressure gradient = 102.565
GAMG:  Solving for p, Initial residual = 0.184935, Final residual = 0.0179288, No Iterations 7
time step continuity errors : sum local = 0.00331402, global = -2.7105e-19, cumulative = -1.08579e-17
Pressure gradient source: uncorrected Ubar = 0.866289, pressure gradient = 0.739674
smoothSolver:  Solving for omega, Initial residual = 0.00928886, Final residual = 0.000183933, No Iterations 1
smoothSolver:  Solving for k, Initial residual = 0.0984866, Final residual = 0.00599653, No Iterations 2
ExecutionTime = 0.019855 s  ClockTime = 0 s

Time = 4s

smoothSolver:  Solving for Ux, Initial residual = 0.0525685, Final residual = 0.00435336, No Iterations 4
smoothSolver:  Solving for Uy, Initial residual = 0.13951, Final residual = 0.0102764, No Iterations 5
Pressure gradient source: uncorrected Ubar = 1.02337, pressure gradient = -1.70273
GAMG:  Solving for p, Initial residual = 0.168165, Final residual = 0.0166022, No Iterations 14
time step continuity errors : sum local = 0.003257, global = 1.39591e-18, cumulative = -9.46202e-18
Pressure gradient source: uncorrected Ubar = 1.00305, pressure gradient = 0.42131
smoothSolver:  Solving for omega, Initial residual = 0.00799405, Final residual = 0.000138077, No Iterations 1
smoothSolver:  Solving for k, Initial residual = 0.0385397, Final residual = 0.00260662, No Iterations 5
ExecutionTime = 0.022795 s  ClockTime = 0 s

Time = 5s

smoothSolver:  Solving for Ux, Initial residual = 0.034895, Final residual = 0.00297831, No Iterations 4
smoothSolver:  Solving for Uy, Initial residual = 0.131084, Final residual = 0.0091981, No Iterations 5
Pressure gradient source: uncorrected Ubar = 0.983866, pressure gradient = 2.18115
GAMG:  Solving for p, Initial residual = 0.153608, Final residual = 0.0147899, No Iterations 16
time step continuity errors : sum local = 0.00279616, global = 2.72694e-17, cumulative = 1.78074e-17
Pressure gradient source: uncorrected Ubar = 0.997591, pressure gradient = 0.684056
smoothSolver:  Solving for omega, Initial residual = 0.00327461, Final residual = 8.24596e-05, No Iterations 1
smoothSolver:  Solving for k, Initial residual = 0.0597507, Final residual = 0.00453597, No Iterations 5
ExecutionTime = 0.025834 s  ClockTime = 0 s

Time = 6s

smoothSolver:  Solving for Ux, Initial residual = 0.0332695, Final residual = 0.00221422, No Iterations 5
smoothSolver:  Solving for Uy, Initial residual = 0.128043, Final residual = 0.0122467, No Iterations 4
Pressure gradient source: uncorrected Ubar = 0.996986, pressure gradient = 1.04556
GAMG:  Solving for p, Initial residual = 0.155911, Final residual = 0.014983, No Iterations 15
time step continuity errors : sum local = 0.0021689, global = 8.16201e-18, cumulative = 2.59694e-17
Pressure gradient source: uncorrected Ubar = 0.999492, pressure gradient = 0.745047
smoothSolver:  Solving for omega, Initial residual = 0.00215947, Final residual = 5.50124e-05, No Iterations 1
smoothSolver:  Solving for k, Initial residual = 0.104591, Final residual = 0.00966569, No Iterations 5
ExecutionTime = 0.028894 s  ClockTime = 0 s

Time = 7s

smoothSolver:  Solving for Ux, Initial residual = 0.0319729, Final residual = 0.00211491, No Iterations 5
smoothSolver:  Solving for Uy, Initial residual = 0.116211, Final residual = 0.0108138, No Iterations 4
Pressure gradient source: uncorrected Ubar = 0.994571, pressure gradient = 1.46902
GAMG:  Solving for p, Initial residual = 0.138501, Final residual = 0.0128985, No Iterations 15
time step continuity errors : sum local = 0.00126646, global = -9.03911e-18, cumulative = 1.69303e-17
Pressure gradient source: uncorrected Ubar = 0.999243, pressure gradient = 0.845963
smoothSolver:  Solving for omega, Initial residual = 0.00109398, Final residual = 3.32036e-05, No Iterations 1
smoothSolver:  Solving for k, Initial residual = 0.140173, Final residual = 0.00892742, No Iterations 6
ExecutionTime = 0.032677 s  ClockTime = 0 s

Time = 8s

smoothSolver:  Solving for Ux, Initial residual = 0.0314276, Final residual = 0.00205382, No Iterations 5
smoothSolver:  Solving for Uy, Initial residual = 0.137643, Final residual = 0.0125383, No Iterations 4
Pressure gradient source: uncorrected Ubar = 0.996815, pressure gradient = 1.32338
GAMG:  Solving for p, Initial residual = 0.0776959, Final residual = 0.00704524, No Iterations 13
time step continuity errors : sum local = 0.000800755, global = -1.42916e-18, cumulative = 1.55011e-17
Pressure gradient source: uncorrected Ubar = 0.999554, pressure gradient = 0.912788
smoothSolver:  Solving for omega, Initial residual = 0.000646302, Final residual = 2.56374e-05, No Iterations 1
smoothSolver:  Solving for k, Initial residual = 0.156471, Final residual = 0.010028, No Iterations 6
ExecutionTime = 0.035993 s  ClockTime = 0 s

Time = 9s

smoothSolver:  Solving for Ux, Initial residual = 0.0301516, Final residual = 0.00297814, No Iterations 4
smoothSolver:  Solving for Uy, Initial residual = 0.144669, Final residual = 0.0116688, No Iterations 4
Pressure gradient source: uncorrected Ubar = 0.998882, pressure gradient = 1.10115
GAMG:  Solving for p, Initial residual = 0.0659709, Final residual = 0.00580793, No Iterations 6
time step continuity errors : sum local = 0.00064254, global = -4.79167e-18, cumulative = 1.07094e-17
Pressure gradient source: uncorrected Ubar = 0.999787, pressure gradient = 0.948748
smoothSolver:  Solving for omega, Initial residual = 0.000353279, Final residual = 1.73084e-05, No Iterations 1
smoothSolver:  Solving for k, Initial residual = 0.102005, Final residual = 0.00734495, No Iterations 6
ExecutionTime = 0.038623 s  ClockTime = 0 s

Time = 10s

smoothSolver:  Solving for Ux, Initial residual = 0.0268556, Final residual = 0.00265325, No Iterations 4
smoothSolver:  Solving for Uy, Initial residual = 0.108017, Final residual = 0.0082115, No Iterations 4
Pressure gradient source: uncorrected Ubar = 1.00223, pressure gradient = 0.536495
GAMG:  Solving for p, Initial residual = 0.0616365, Final residual = 0.00508894, No Iterations 6
time step continuity errors : sum local = 0.000432897, global = -1.12804e-18, cumulative = 9.5814e-18
Pressure gradient source: uncorrected Ubar = 1.00026, pressure gradient = 0.901515
smoothSolver:  Solving for omega, Initial residual = 0.000202956, Final residual = 1.30508e-05, No Iterations 1
smoothSolver:  Solving for k, Initial residual = 0.0659061, Final residual = 0.00498318, No Iterations 6
ExecutionTime = 0.04118 s  ClockTime = 0 s

Time = 11s

smoothSolver:  Solving for Ux, Initial residual = 0.0241751, Final residual = 0.00238822, No Iterations 4
smoothSolver:  Solving for Uy, Initial residual = 0.0865239, Final residual = 0.00531707, No Iterations 5
Pressure gradient source: uncorrected Ubar = 1.00253, pressure gradient = 0.398682
GAMG:  Solving for p, Initial residual = 0.0618621, Final residual = 0.00610304, No Iterations 6
time step continuity errors : sum local = 0.000432972, global = 6.35275e-21, cumulative = 9.58775e-18
Pressure gradient source: uncorrected Ubar = 1.00029, pressure gradient = 0.844051
smoothSolver:  Solving for omega, Initial residual = 0.000115796, Final residual = 9.85672e-06, No Iterations 1
smoothSolver:  Solving for k, Initial residual = 0.0461206, Final residual = 0.0035265, No Iterations 6
ExecutionTime = 0.043759 s  ClockTime = 0 s

Time = 12s

smoothSolver:  Solving for Ux, Initial residual = 0.0226581, Final residual = 0.00222461, No Iterations 4
smoothSolver:  Solving for Uy, Initial residual = 0.090275, Final residual = 0.00673076, No Iterations 5
Pressure gradient source: uncorrected Ubar = 1.00195, pressure gradient = 0.429233
GAMG:  Solving for p, Initial residual = 0.0688436, Final residual = 0.00523966, No Iterations 4
time step continuity errors : sum local = 0.00030349, global = -1.37558e-18, cumulative = 8.21217e-18
Pressure gradient source: uncorrected Ubar = 1.0002, pressure gradient = 0.801002
smoothSolver:  Solving for omega, Initial residual = 6.79206e-05, Final residual = 7.90785e-06, No Iterations 1
smoothSolver:  Solving for k, Initial residual = 0.034747, Final residual = 0.00270251, No Iterations 6
ExecutionTime = 0.046264 s  ClockTime = 0 s

Time = 13s

smoothSolver:  Solving for Ux, Initial residual = 0.0215285, Final residual = 0.0021172, No Iterations 4
smoothSolver:  Solving for Uy, Initial residual = 0.0972571, Final residual = 0.00780153, No Iterations 5
Pressure gradient source: uncorrected Ubar = 1.00169, pressure gradient = 0.419366
GAMG:  Solving for p, Initial residual = 0.0731725, Final residual = 0.00596589, No Iterations 7
time step continuity errors : sum local = 0.000271553, global = -1.46023e-18, cumulative = 6.75194e-18
Pressure gradient source: uncorrected Ubar = 1.00016, pressure gradient = 0.764716
smoothSolver:  Solving for omega, Initial residual = 4.11275e-05, Final residual = 6.4172e-06, No Iterations 1
smoothSolver:  Solving for k, Initial residual = 0.0272604, Final residual = 0.0021143, No Iterations 6
ExecutionTime = 0.04887 s  ClockTime = 0 s

Time = 14s

smoothSolver:  Solving for Ux, Initial residual = 0.0205451, Final residual = 0.00203573, No Iterations 4
smoothSolver:  Solving for Uy, Initial residual = 0.10054, Final residual = 0.00847196, No Iterations 5
Pressure gradient source: uncorrected Ubar = 1.00143, pressure gradient = 0.425307
GAMG:  Solving for p, Initial residual = 0.0740494, Final residual = 0.00726971, No Iterations 10
time step continuity errors : sum local = 0.000257793, global = -1.81937e-18, cumulative = 4.93256e-18
Pressure gradient source: uncorrected Ubar = 1.00012, pressure gradient = 0.735738
smoothSolver:  Solving for omega, Initial residual = 2.59447e-05, Final residual = 5.55016e-06, No Iterations 1
smoothSolver:  Solving for k, Initial residual = 0.0219544, Final residual = 0.00173686, No Iterations 6
ExecutionTime = 0.051697 s  ClockTime = 0 s

Time = 15s

smoothSolver:  Solving for Ux, Initial residual = 0.0197009, Final residual = 0.00125976, No Iterations 5
smoothSolver:  Solving for Uy, Initial residual = 0.0961714, Final residual = 0.00826239, No Iterations 5
Pressure gradient source: uncorrected Ubar = 1.00148, pressure gradient = 0.364855
GAMG:  Solving for p, Initial residual = 0.0789232, Final residual = 0.00731284, No Iterations 11
time step continuity errors : sum local = 0.000212023, global = 5.05515e-18, cumulative = 9.98771e-18
Pressure gradient source: uncorrected Ubar = 1.00013, pressure gradient = 0.702473
smoothSolver:  Solving for omega, Initial residual = 1.75753e-05, Final residual = 5.01747e-06, No Iterations 1
smoothSolver:  Solving for k, Initial residual = 0.0176193, Final residual = 0.00138661, No Iterations 6
ExecutionTime = 0.054532 s  ClockTime = 0 s

Time = 16s

smoothSolver:  Solving for Ux, Initial residual = 0.0189748, Final residual = 0.00121945, No Iterations 5
smoothSolver:  Solving for Uy, Initial residual = 0.0934404, Final residual = 0.00838152, No Iterations 5
Pressure gradient source: uncorrected Ubar = 1.00142, pressure gradient = 0.32814
GAMG:  Solving for p, Initial residual = 0.0793534, Final residual = 0.00697391, No Iterations 10
time step continuity errors : sum local = 0.000161325, global = -2.69695e-18, cumulative = 7.29075e-18
Pressure gradient source: uncorrected Ubar = 1.00013, pressure gradient = 0.669566
smoothSolver:  Solving for omega, Initial residual = 1.27921e-05, Final residual = 4.82384e-06, No Iterations 1
smoothSolver:  Solving for k, Initial residual = 0.0142197, Final residual = 0.00111258, No Iterations 6
ExecutionTime = 0.057312 s  ClockTime = 0 s

Time = 17s

smoothSolver:  Solving for Ux, Initial residual = 0.0182431, Final residual = 0.00118542, No Iterations 5
smoothSolver:  Solving for Uy, Initial residual = 0.0912998, Final residual = 0.00833695, No Iterations 5
Pressure gradient source: uncorrected Ubar = 1.00143, pressure gradient = 0.275003
GAMG:  Solving for p, Initial residual = 0.0752589, Final residual = 0.00747997, No Iterations 6
time step continuity errors : sum local = 0.000141235, global = 8.09711e-19, cumulative = 8.10046e-18
Pressure gradient source: uncorrected Ubar = 1.00013, pressure gradient = 0.634747
smoothSolver:  Solving for omega, Initial residual = 1.02183e-05, Final residual = 4.72069e-06, No Iterations 1
smoothSolver:  Solving for k, Initial residual = 0.0115185, Final residual = 0.000913269, No Iterations 6
ExecutionTime = 0.05989 s  ClockTime = 0 s

Time = 18s

smoothSolver:  Solving for Ux, Initial residual = 0.0175162, Final residual = 0.00115349, No Iterations 5
smoothSolver:  Solving for Uy, Initial residual = 0.0862272, Final residual = 0.00815206, No Iterations 5
Pressure gradient source: uncorrected Ubar = 1.00133, pressure gradient = 0.252381
GAMG:  Solving for p, Initial residual = 0.068551, Final residual = 0.0049815, No Iterations 5
time step continuity errors : sum local = 7.94089e-05, global = -3.32439e-18, cumulative = 4.77607e-18
Pressure gradient source: uncorrected Ubar = 1.00011, pressure gradient = 0.601816
smoothSolver:  Solving for omega, Initial residual = 8.80929e-06, Final residual = 8.80929e-06, No Iterations 0
smoothSolver:  Solving for k, Initial residual = 0.0102004, Final residual = 0.000721325, No Iterations 6
ExecutionTime = 0.062406 s  ClockTime = 0 s

Time = 19s

smoothSolver:  Solving for Ux, Initial residual = 0.0167005, Final residual = 0.00111801, No Iterations 5
smoothSolver:  Solving for Uy, Initial residual = 0.0746902, Final residual = 0.00737024, No Iterations 5
Pressure gradient source: uncorrected Ubar = 1.00171, pressure gradient = 0.0873665
GAMG:  Solving for p, Initial residual = 0.0610819, Final residual = 0.00584646, No Iterations 5
time step continuity errors : sum local = 7.66332e-05, global = -4.84881e-18, cumulative = -7.27415e-20
Pressure gradient source: uncorrected Ubar = 1.00016, pressure gradient = 0.552746
smoothSolver:  Solving for omega, Initial residual = 9.5849e-06, Final residual = 9.5849e-06, No Iterations 0
smoothSolver:  Solving for k, Initial residual = 0.00989852, Final residual = 0.000676587, No Iterations 6
ExecutionTime = 0.064951 s  ClockTime = 0 s

Time = 20s

smoothSolver:  Solving for Ux, Initial residual = 0.0159211, Final residual = 0.00108288, No Iterations 5
smoothSolver:  Solving for Uy, Initial residual = 0.0639266, Final residual = 0.00423269, No Iterations 6
Pressure gradient source: uncorrected Ubar = 1.00144, pressure gradient = 0.100706
GAMG:  Solving for p, Initial residual = 0.0615945, Final residual = 0.00532733, No Iterations 5
time step continuity errors : sum local = 6.19971e-05, global = -9.7557e-19, cumulative = -1.04831e-18
Pressure gradient source: uncorrected Ubar = 1.00013, pressure gradient = 0.511144
smoothSolver:  Solving for omega, Initial residual = 1.02773e-05, Final residual = 5.62903e-06, No Iterations 1
smoothSolver:  Solving for k, Initial residual = 0.00970221, Final residual = 0.000673704, No Iterations 6
ExecutionTime = 0.067561 s  ClockTime = 0 s

Time = 21s

smoothSolver:  Solving for Ux, Initial residual = 0.0152363, Final residual = 0.00105576, No Iterations 5
smoothSolver:  Solving for Uy, Initial residual = 0.058092, Final residual = 0.00397317, No Iterations 6
Pressure gradient source: uncorrected Ubar = 1.00104, pressure gradient = 0.175668
GAMG:  Solving for p, Initial residual = 0.0605259, Final residual = 0.00576964, No Iterations 5
time step continuity errors : sum local = 6.05767e-05, global = 2.95006e-18, cumulative = 1.90175e-18
Pressure gradient source: uncorrected Ubar = 1.00008, pressure gradient = 0.483921
smoothSolver:  Solving for omega, Initial residual = 9.23808e-06, Final residual = 9.23808e-06, No Iterations 0
smoothSolver:  Solving for k, Initial residual = 0.00967105, Final residual = 0.000665425, No Iterations 6
ExecutionTime = 0.070085 s  ClockTime = 0 s

Time = 22s

smoothSolver:  Solving for Ux, Initial residual = 0.0143749, Final residual = 0.00102191, No Iterations 5
smoothSolver:  Solving for Uy, Initial residual = 0.0578745, Final residual = 0.00402398, No Iterations 6
Pressure gradient source: uncorrected Ubar = 1.00136, pressure gradient = 0.0276968
GAMG:  Solving for p, Initial residual = 0.0666181, Final residual = 0.00613866, No Iterations 5
time step continuity errors : sum local = 5.9157e-05, global = -1.05285e-17, cumulative = -8.62679e-18
Pressure gradient source: uncorrected Ubar = 1.00013, pressure gradient = 0.441586
smoothSolver:  Solving for omega, Initial residual = 9.82028e-06, Final residual = 9.82028e-06, No Iterations 0
smoothSolver:  Solving for k, Initial residual = 0.00982958, Final residual = 0.000690557, No Iterations 6
ExecutionTime = 0.072608 s  ClockTime = 0 s

Time = 23s

smoothSolver:  Solving for Ux, Initial residual = 0.0134951, Final residual = 0.000989342, No Iterations 5
smoothSolver:  Solving for Uy, Initial residual = 0.054069, Final residual = 0.00379506, No Iterations 6
Pressure gradient source: uncorrected Ubar = 1.00123, pressure gradient = 0.0160661
GAMG:  Solving for p, Initial residual = 0.0682901, Final residual = 0.00659587, No Iterations 5
time step continuity errors : sum local = 5.84586e-05, global = 8.53968e-19, cumulative = -7.77283e-18
Pressure gradient source: uncorrected Ubar = 1.00011, pressure gradient = 0.402794
smoothSolver:  Solving for omega, Initial residual = 1.03737e-05, Final residual = 6.22909e-06, No Iterations 1
smoothSolver:  Solving for k, Initial residual = 0.00978686, Final residual = 0.000702072, No Iterations 6
ExecutionTime = 0.075199 s  ClockTime = 0 s

Time = 24s

smoothSolver:  Solving for Ux, Initial residual = 0.0129605, Final residual = 0.000963583, No Iterations 5
smoothSolver:  Solving for Uy, Initial residual = 0.0523719, Final residual = 0.00359579, No Iterations 6
Pressure gradient source: uncorrected Ubar = 1.00092, pressure gradient = 0.0744134
GAMG:  Solving for p, Initial residual = 0.0733712, Final residual = 0.00728868, No Iterations 5
time step continuity errors : sum local = 5.92285e-05, global = -1.1985e-18, cumulative = -8.97133e-18
Pressure gradient source: uncorrected Ubar = 1.00008, pressure gradient = 0.375937
smoothSolver:  Solving for omega, Initial residual = 9.68824e-06, Final residual = 9.68824e-06, No Iterations 0
smoothSolver:  Solving for k, Initial residual = 0.00985603, Final residual = 0.000717349, No Iterations 6
ExecutionTime = 0.07777 s  ClockTime = 0 s

Time = 25s

smoothSolver:  Solving for Ux, Initial residual = 0.0123928, Final residual = 0.000932154, No Iterations 5
smoothSolver:  Solving for Uy, Initial residual = 0.0498635, Final residual = 0.00343503, No Iterations 6
Pressure gradient source: uncorrected Ubar = 1.00114, pressure gradient = -0.0393723
GAMG:  Solving for p, Initial residual = 0.0799775, Final residual = 0.00728684, No Iterations 6
time step continuity errors : sum local = 5.54741e-05, global = -8.87532e-19, cumulative = -9.85886e-18
Pressure gradient source: uncorrected Ubar = 1.0001, pressure gradient = 0.338021
smoothSolver:  Solving for omega, Initial residual = 1.01794e-05, Final residual = 6.32994e-06, No Iterations 1
smoothSolver:  Solving for k, Initial residual = 0.00988225, Final residual = 0.000730723, No Iterations 6
ExecutionTime = 0.08035 s  ClockTime = 0 s

Time = 26s

smoothSolver:  Solving for Ux, Initial residual = 0.0119352, Final residual = 0.000909542, No Iterations 5
smoothSolver:  Solving for Uy, Initial residual = 0.0440179, Final residual = 0.00299765, No Iterations 6
Pressure gradient source: uncorrected Ubar = 1.0008, pressure gradient = 0.0377391
GAMG:  Solving for p, Initial residual = 0.0720958, Final residual = 0.00658446, No Iterations 7
time step continuity errors : sum local = 4.82294e-05, global = -1.25361e-19, cumulative = -9.98422e-18
Pressure gradient source: uncorrected Ubar = 1.00006, pressure gradient = 0.314222
smoothSolver:  Solving for omega, Initial residual = 9.61409e-06, Final residual = 9.61409e-06, No Iterations 0
smoothSolver:  Solving for k, Initial residual = 0.00997084, Final residual = 0.000747248, No Iterations 6
ExecutionTime = 0.082966 s  ClockTime = 0 s

Time = 27s

smoothSolver:  Solving for Ux, Initial residual = 0.0114566, Final residual = 0.000883401, No Iterations 5
smoothSolver:  Solving for Uy, Initial residual = 0.0394191, Final residual = 0.00264912, No Iterations 6
Pressure gradient source: uncorrected Ubar = 1.00104, pressure gradient = -0.0849145
GAMG:  Solving for p, Initial residual = 0.0734871, Final residual = 0.00690017, No Iterations 7
time step continuity errors : sum local = 4.64812e-05, global = 1.4518e-17, cumulative = 4.53382e-18
Pressure gradient source: uncorrected Ubar = 1.00009, pressure gradient = 0.277839
smoothSolver:  Solving for omega, Initial residual = 1.00103e-05, Final residual = 6.35252e-06, No Iterations 1
smoothSolver:  Solving for k, Initial residual = 0.00999228, Final residual = 0.00076197, No Iterations 6
ExecutionTime = 0.085686 s  ClockTime = 0 s

Time = 28s

smoothSolver:  Solving for Ux, Initial residual = 0.0110984, Final residual = 0.000864803, No Iterations 5
smoothSolver:  Solving for Uy, Initial residual = 0.0337848, Final residual = 0.00230838, No Iterations 6
Pressure gradient source: uncorrected Ubar = 1.00071, pressure gradient = 0.00101604
GAMG:  Solving for p, Initial residual = 0.0636228, Final residual = 0.00492817, No Iterations 3
time step continuity errors : sum local = 2.95454e-05, global = 5.24565e-18, cumulative = 9.77947e-18
Pressure gradient source: uncorrected Ubar = 1.00005, pressure gradient = 0.256503
smoothSolver:  Solving for omega, Initial residual = 9.50215e-06, Final residual = 9.50215e-06, No Iterations 0
smoothSolver:  Solving for k, Initial residual = 0.0101194, Final residual = 0.000778807, No Iterations 6
ExecutionTime = 0.088134 s  ClockTime = 0 s

Time = 29s

smoothSolver:  Solving for Ux, Initial residual = 0.0106394, Final residual = 0.000841242, No Iterations 5
smoothSolver:  Solving for Uy, Initial residual = 0.0321107, Final residual = 0.00212165, No Iterations 6
Pressure gradient source: uncorrected Ubar = 1.00096, pressure gradient = -0.128297
GAMG:  Solving for p, Initial residual = 0.0636841, Final residual = 0.00420255, No Iterations 3
time step continuity errors : sum local = 2.27671e-05, global = 4.02852e-18, cumulative = 1.3808e-17
Pressure gradient source: uncorrected Ubar = 1.00009, pressure gradient = 0.221411
smoothSolver:  Solving for omega, Initial residual = 9.82086e-06, Final residual = 9.82086e-06, No Iterations 0
smoothSolver:  Solving for k, Initial residual = 0.0104491, Final residual = 0.000810519, No Iterations 6
ExecutionTime = 0.090575 s  ClockTime = 0 s

Time = 30s

smoothSolver:  Solving for Ux, Initial residual = 0.0102232, Final residual = 0.000820781, No Iterations 5
smoothSolver:  Solving for Uy, Initial residual = 0.0304117, Final residual = 0.00205904, No Iterations 6
Pressure gradient source: uncorrected Ubar = 1.00089, pressure gradient = -0.141735
GAMG:  Solving for p, Initial residual = 0.0604181, Final residual = 0.00177062, No Iterations 4
time step continuity errors : sum local = 8.76953e-06, global = -2.063e-18, cumulative = 1.1745e-17
Pressure gradient source: uncorrected Ubar = 1.00008, pressure gradient = 0.188655
smoothSolver:  Solving for omega, Initial residual = 1.01041e-05, Final residual = 6.47785e-06, No Iterations 1
smoothSolver:  Solving for k, Initial residual = 0.0104755, Final residual = 0.000814564, No Iterations 6
ExecutionTime = 0.093061 s  ClockTime = 0 s

Time = 31s

smoothSolver:  Solving for Ux, Initial residual = 0.00994326, Final residual = 0.000807916, No Iterations 5
smoothSolver:  Solving for Uy, Initial residual = 0.0287044, Final residual = 0.0019717, No Iterations 6
Pressure gradient source: uncorrected Ubar = 1.00063, pressure gradient = -0.0737119
GAMG:  Solving for p, Initial residual = 0.0525357, Final residual = 0.00376503, No Iterations 3
time step continuity errors : sum local = 1.74771e-05, global = 2.09558e-19, cumulative = 1.19545e-17
Pressure gradient source: uncorrected Ubar = 1.00005, pressure gradient = 0.168339
smoothSolver:  Solving for omega, Initial residual = 9.56205e-06, Final residual = 9.56205e-06, No Iterations 0
smoothSolver:  Solving for k, Initial residual = 0.0106292, Final residual = 0.000831514, No Iterations 6
ExecutionTime = 0.09552 s  ClockTime = 0 s

Time = 32s

smoothSolver:  Solving for Ux, Initial residual = 0.00959103, Final residual = 0.000790914, No Iterations 5
smoothSolver:  Solving for Uy, Initial residual = 0.0290669, Final residual = 0.00201152, No Iterations 6
Pressure gradient source: uncorrected Ubar = 1.00083, pressure gradient = -0.179113
GAMG:  Solving for p, Initial residual = 0.0527681, Final residual = 0.00364777, No Iterations 3
time step continuity errors : sum local = 1.72957e-05, global = 2.61887e-18, cumulative = 1.45734e-17
Pressure gradient source: uncorrected Ubar = 1.00007, pressure gradient = 0.137026
smoothSolver:  Solving for omega, Initial residual = 9.79796e-06, Final residual = 9.79796e-06, No Iterations 0
smoothSolver:  Solving for k, Initial residual = 0.0110029, Final residual = 0.000859218, No Iterations 6
ExecutionTime = 0.09796 s  ClockTime = 0 s

Time = 33s

smoothSolver:  Solving for Ux, Initial residual = 0.00924525, Final residual = 0.000775738, No Iterations 5
smoothSolver:  Solving for Uy, Initial residual = 0.0271786, Final residual = 0.00190014, No Iterations 6
Pressure gradient source: uncorrected Ubar = 1.0008, pressure gradient = -0.20539
GAMG:  Solving for p, Initial residual = 0.0481085, Final residual = 0.00367893, No Iterations 3
time step continuity errors : sum local = 1.77578e-05, global = 2.14132e-18, cumulative = 1.67147e-17
Pressure gradient source: uncorrected Ubar = 1.00007, pressure gradient = 0.105986
smoothSolver:  Solving for omega, Initial residual = 1.00058e-05, Final residual = 6.43514e-06, No Iterations 1
smoothSolver:  Solving for k, Initial residual = 0.0110445, Final residual = 0.000862179, No Iterations 6
ExecutionTime = 0.100403 s  ClockTime = 0 s

Time = 34s

smoothSolver:  Solving for Ux, Initial residual = 0.00902609, Final residual = 0.000766791, No Iterations 5
smoothSolver:  Solving for Uy, Initial residual = 0.0262818, Final residual = 0.00185008, No Iterations 6
Pressure gradient source: uncorrected Ubar = 1.00055, pressure gradient = -0.131817
GAMG:  Solving for p, Initial residual = 0.0518915, Final residual = 0.00364236, No Iterations 3
time step continuity errors : sum local = 1.7326e-05, global = -2.6796e-18, cumulative = 1.40351e-17
Pressure gradient source: uncorrected Ubar = 1.00004, pressure gradient = 0.0879191
smoothSolver:  Solving for omega, Initial residual = 9.4205e-06, Final residual = 9.4205e-06, No Iterations 0
smoothSolver:  Solving for k, Initial residual = 0.011195, Final residual = 0.000872212, No Iterations 6
ExecutionTime = 0.102939 s  ClockTime = 0 s

Time = 35s

smoothSolver:  Solving for Ux, Initial residual = 0.00875102, Final residual = 0.000754415, No Iterations 5
smoothSolver:  Solving for Uy, Initial residual = 0.0241886, Final residual = 0.00169935, No Iterations 6
Pressure gradient source: uncorrected Ubar = 1.00072, pressure gradient = -0.228041
GAMG:  Solving for p, Initial residual = 0.0432374, Final residual = 0.00350356, No Iterations 3
time step continuity errors : sum local = 1.62048e-05, global = 1.14074e-18, cumulative = 1.51759e-17
Pressure gradient source: uncorrected Ubar = 1.00006, pressure gradient = 0.0596595
smoothSolver:  Solving for omega, Initial residual = 9.59087e-06, Final residual = 9.59087e-06, No Iterations 0
smoothSolver:  Solving for k, Initial residual = 0.0115908, Final residual = 0.000903827, No Iterations 6
ExecutionTime = 0.105415 s  ClockTime = 0 s

Time = 36s

smoothSolver:  Solving for Ux, Initial residual = 0.00844648, Final residual = 0.00074185, No Iterations 5
smoothSolver:  Solving for Uy, Initial residual = 0.0233345, Final residual = 0.00162802, No Iterations 6
Pressure gradient source: uncorrected Ubar = 1.00073, pressure gradient = -0.260269
GAMG:  Solving for p, Initial residual = 0.0467389, Final residual = 0.00404856, No Iterations 3
time step continuity errors : sum local = 1.72225e-05, global = 3.67147e-18, cumulative = 1.88473e-17
Pressure gradient source: uncorrected Ubar = 1.00007, pressure gradient = 0.0305339
smoothSolver:  Solving for omega, Initial residual = 9.73598e-06, Final residual = 9.73598e-06, No Iterations 0
smoothSolver:  Solving for k, Initial residual = 0.0118883, Final residual = 0.000922578, No Iterations 6
ExecutionTime = 0.10785 s  ClockTime = 0 s

Time = 37s

smoothSolver:  Solving for Ux, Initial residual = 0.00820746, Final residual = 0.000732391, No Iterations 5
smoothSolver:  Solving for Uy, Initial residual = 0.021748, Final residual = 0.00155435, No Iterations 6
Pressure gradient source: uncorrected Ubar = 1.00068, pressure gradient = -0.268332
GAMG:  Solving for p, Initial residual = 0.0400097, Final residual = 0.00323824, No Iterations 5
time step continuity errors : sum local = 1.29818e-05, global = 1.06441e-17, cumulative = 2.94914e-17
Pressure gradient source: uncorrected Ubar = 1.00006, pressure gradient = 0.00368741
smoothSolver:  Solving for omega, Initial residual = 9.88323e-06, Final residual = 9.88323e-06, No Iterations 0
smoothSolver:  Solving for k, Initial residual = 0.0122148, Final residual = 0.000943781, No Iterations 6
ExecutionTime = 0.110404 s  ClockTime = 0 s

Time = 38s

smoothSolver:  Solving for Ux, Initial residual = 0.00795787, Final residual = 0.000724647, No Iterations 5
smoothSolver:  Solving for Uy, Initial residual = 0.0206628, Final residual = 0.00144924, No Iterations 6
Pressure gradient source: uncorrected Ubar = 1.00066, pressure gradient = -0.290031
GAMG:  Solving for p, Initial residual = 0.0456353, Final residual = 0.00430758, No Iterations 4
time step continuity errors : sum local = 1.78273e-05, global = 2.72363e-18, cumulative = 3.2215e-17
Pressure gradient source: uncorrected Ubar = 1.00006, pressure gradient = -0.0228818
smoothSolver:  Solving for omega, Initial residual = 9.98527e-06, Final residual = 9.98527e-06, No Iterations 0
smoothSolver:  Solving for k, Initial residual = 0.0124977, Final residual = 0.000963099, No Iterations 6
ExecutionTime = 0.112882 s  ClockTime = 0 s

Time = 39s

smoothSolver:  Solving for Ux, Initial residual = 0.00772053, Final residual = 0.000715992, No Iterations 5
smoothSolver:  Solving for Uy, Initial residual = 0.0193024, Final residual = 0.00133429, No Iterations 6
Pressure gradient source: uncorrected Ubar = 1.00067, pressure gradient = -0.319276
GAMG:  Solving for p, Initial residual = 0.0404047, Final residual = 0.00363237, No Iterations 6
time step continuity errors : sum local = 1.55054e-05, global = -5.61583e-19, cumulative = 3.16535e-17
Pressure gradient source: uncorrected Ubar = 1.00006, pressure gradient = -0.0501907
smoothSolver:  Solving for omega, Initial residual = 1.00747e-05, Final residual = 6.45288e-06, No Iterations 1
smoothSolver:  Solving for k, Initial residual = 0.0124094, Final residual = 0.000956789, No Iterations 6
ExecutionTime = 0.115524 s  ClockTime = 0 s

Time = 40s

smoothSolver:  Solving for Ux, Initial residual = 0.00760509, Final residual = 0.000714665, No Iterations 5
smoothSolver:  Solving for Uy, Initial residual = 0.0186154, Final residual = 0.00130063, No Iterations 6
Pressure gradient source: uncorrected Ubar = 1.00042, pressure gradient = -0.23665
GAMG:  Solving for p, Initial residual = 0.0411893, Final residual = 0.00389447, No Iterations 5
time step continuity errors : sum local = 1.59963e-05, global = -5.2065e-18, cumulative = 2.6447e-17
Pressure gradient source: uncorrected Ubar = 1.00003, pressure gradient = -0.063677
smoothSolver:  Solving for omega, Initial residual = 9.4146e-06, Final residual = 9.4146e-06, No Iterations 0
smoothSolver:  Solving for k, Initial residual = 0.0124833, Final residual = 0.000960642, No Iterations 6
ExecutionTime = 0.118105 s  ClockTime = 0 s

Time = 41s

smoothSolver:  Solving for Ux, Initial residual = 0.0074043, Final residual = 0.000706683, No Iterations 5
smoothSolver:  Solving for Uy, Initial residual = 0.0175948, Final residual = 0.00121819, No Iterations 6
Pressure gradient source: uncorrected Ubar = 1.00058, pressure gradient = -0.325974
GAMG:  Solving for p, Initial residual = 0.0393976, Final residual = 0.0038563, No Iterations 5
time step continuity errors : sum local = 1.50134e-05, global = 3.34109e-18, cumulative = 2.97881e-17
Pressure gradient source: uncorrected Ubar = 1.00005, pressure gradient = -0.0872318
smoothSolver:  Solving for omega, Initial residual = 9.46635e-06, Final residual = 9.46635e-06, No Iterations 0
smoothSolver:  Solving for k, Initial residual = 0.0127455, Final residual = 0.000977499, No Iterations 6
ExecutionTime = 0.120626 s  ClockTime = 0 s

Time = 42s

smoothSolver:  Solving for Ux, Initial residual = 0.00719526, Final residual = 0.000699526, No Iterations 5
smoothSolver:  Solving for Uy, Initial residual = 0.0169247, Final residual = 0.00114593, No Iterations 6
Pressure gradient source: uncorrected Ubar = 1.00058, pressure gradient = -0.346831
GAMG:  Solving for p, Initial residual = 0.0386169, Final residual = 0.00369119, No Iterations 5
time step continuity errors : sum local = 1.3753e-05, global = -3.99801e-18, cumulative = 2.579e-17
Pressure gradient source: uncorrected Ubar = 1.00005, pressure gradient = -0.110841
smoothSolver:  Solving for omega, Initial residual = 9.52827e-06, Final residual = 9.52827e-06, No Iterations 0
smoothSolver:  Solving for k, Initial residual = 0.0129934, Final residual = 0.000992193, No Iterations 6
ExecutionTime = 0.123154 s  ClockTime = 0 s

Time = 43s

smoothSolver:  Solving for Ux, Initial residual = 0.00699857, Final residual = 0.000692794, No Iterations 5
smoothSolver:  Solving for Uy, Initial residual = 0.0164693, Final residual = 0.00112967, No Iterations 6
Pressure gradient source: uncorrected Ubar = 1.00056, pressure gradient = -0.359855
GAMG:  Solving for p, Initial residual = 0.0396286, Final residual = 0.0017662, No Iterations 4
time step continuity errors : sum local = 6.57148e-06, global = -3.13402e-18, cumulative = 2.2656e-17
Pressure gradient source: uncorrected Ubar = 1.00005, pressure gradient = -0.133518
smoothSolver:  Solving for omega, Initial residual = 9.57736e-06, Final residual = 9.57736e-06, No Iterations 0
smoothSolver:  Solving for k, Initial residual = 0.0132133, Final residual = 0.0010063, No Iterations 6
ExecutionTime = 0.125665 s  ClockTime = 0 s

Time = 44s

smoothSolver:  Solving for Ux, Initial residual = 0.0068323, Final residual = 0.000453068, No Iterations 6
smoothSolver:  Solving for Uy, Initial residual = 0.015834, Final residual = 0.00105277, No Iterations 6
Pressure gradient source: uncorrected Ubar = 1.00047, pressure gradient = -0.340234
GAMG:  Solving for p, Initial residual = 0.0355093, Final residual = 0.00347706, No Iterations 4
time step continuity errors : sum local = 1.16165e-05, global = -4.89556e-18, cumulative = 1.77605e-17
Pressure gradient source: uncorrected Ubar = 1.00004, pressure gradient = -0.152393
smoothSolver:  Solving for omega, Initial residual = 9.61422e-06, Final residual = 9.61422e-06, No Iterations 0
smoothSolver:  Solving for k, Initial residual = 0.013454, Final residual = 0.00101989, No Iterations 6
ExecutionTime = 0.128156 s  ClockTime = 0 s

Time = 45s

smoothSolver:  Solving for Ux, Initial residual = 0.00664545, Final residual = 0.000448953, No Iterations 6
smoothSolver:  Solving for Uy, Initial residual = 0.0151575, Final residual = 0.00147916, No Iterations 5
Pressure gradient source: uncorrected Ubar = 1.00048, pressure gradient = -0.365035
GAMG:  Solving for p, Initial residual = 0.0334316, Final residual = 0.00313084, No Iterations 6
time step continuity errors : sum local = 1.05111e-05, global = 4.1346e-19, cumulative = 1.81739e-17
Pressure gradient source: uncorrected Ubar = 1.00005, pressure gradient = -0.17235
smoothSolver:  Solving for omega, Initial residual = 9.65582e-06, Final residual = 9.65582e-06, No Iterations 0
smoothSolver:  Solving for k, Initial residual = 0.0136619, Final residual = 0.0010324, No Iterations 6
ExecutionTime = 0.130731 s  ClockTime = 0 s

Time = 46s

smoothSolver:  Solving for Ux, Initial residual = 0.00645266, Final residual = 0.000444167, No Iterations 6
smoothSolver:  Solving for Uy, Initial residual = 0.0146949, Final residual = 0.00137751, No Iterations 5
Pressure gradient source: uncorrected Ubar = 1.00048, pressure gradient = -0.381991
GAMG:  Solving for p, Initial residual = 0.0350177, Final residual = 0.00294332, No Iterations 6
time step continuity errors : sum local = 9.82504e-06, global = 2.17634e-18, cumulative = 2.03503e-17
Pressure gradient source: uncorrected Ubar = 1.00005, pressure gradient = -0.192294
smoothSolver:  Solving for omega, Initial residual = 9.6796e-06, Final residual = 9.6796e-06, No Iterations 0
smoothSolver:  Solving for k, Initial residual = 0.0138449, Final residual = 0.00104, No Iterations 6
ExecutionTime = 0.133316 s  ClockTime = 0 s

Time = 47s

smoothSolver:  Solving for Ux, Initial residual = 0.00628723, Final residual = 0.000440655, No Iterations 6
smoothSolver:  Solving for Uy, Initial residual = 0.0136778, Final residual = 0.00123327, No Iterations 5
Pressure gradient source: uncorrected Ubar = 1.00045, pressure gradient = -0.384411
GAMG:  Solving for p, Initial residual = 0.0347143, Final residual = 0.00314864, No Iterations 6
time step continuity errors : sum local = 1.03574e-05, global = -3.97378e-18, cumulative = 1.63765e-17
Pressure gradient source: uncorrected Ubar = 1.00004, pressure gradient = -0.210408
smoothSolver:  Solving for omega, Initial residual = 9.69101e-06, Final residual = 9.69101e-06, No Iterations 0
smoothSolver:  Solving for k, Initial residual = 0.0140304, Final residual = 0.0010507, No Iterations 6
ExecutionTime = 0.135961 s  ClockTime = 0 s

Time = 48s

smoothSolver:  Solving for Ux, Initial residual = 0.00612741, Final residual = 0.000437184, No Iterations 6
smoothSolver:  Solving for Uy, Initial residual = 0.0133591, Final residual = 0.00117742, No Iterations 5
Pressure gradient source: uncorrected Ubar = 1.00043, pressure gradient = -0.392555
GAMG:  Solving for p, Initial residual = 0.0337444, Final residual = 0.00324853, No Iterations 7
time step continuity errors : sum local = 1.04866e-05, global = 4.3042e-18, cumulative = 2.06807e-17
Pressure gradient source: uncorrected Ubar = 1.00004, pressure gradient = -0.22763
smoothSolver:  Solving for omega, Initial residual = 9.71593e-06, Final residual = 9.71593e-06, No Iterations 0
smoothSolver:  Solving for k, Initial residual = 0.0141787, Final residual = 0.0010553, No Iterations 6
ExecutionTime = 0.138589 s  ClockTime = 0 s

Time = 49s

smoothSolver:  Solving for Ux, Initial residual = 0.00596418, Final residual = 0.000433106, No Iterations 6
smoothSolver:  Solving for Uy, Initial residual = 0.0126132, Final residual = 0.00107523, No Iterations 5
Pressure gradient source: uncorrected Ubar = 1.00041, pressure gradient = -0.400561
GAMG:  Solving for p, Initial residual = 0.0338816, Final residual = 0.00325579, No Iterations 9
time step continuity errors : sum local = 1.03261e-05, global = 5.20862e-18, cumulative = 2.58893e-17
Pressure gradient source: uncorrected Ubar = 1.00004, pressure gradient = -0.244061
smoothSolver:  Solving for omega, Initial residual = 9.72509e-06, Final residual = 9.72509e-06, No Iterations 0
smoothSolver:  Solving for k, Initial residual = 0.0143101, Final residual = 0.00106036, No Iterations 6
ExecutionTime = 0.141311 s  ClockTime = 0 s

Time = 50s

smoothSolver:  Solving for Ux, Initial residual = 0.00579393, Final residual = 0.000428098, No Iterations 6
smoothSolver:  Solving for Uy, Initial residual = 0.0123867, Final residual = 0.00101839, No Iterations 5
Pressure gradient source: uncorrected Ubar = 1.0004, pressure gradient = -0.40808
GAMG:  Solving for p, Initial residual = 0.0344601, Final residual = 0.00299324, No Iterations 8
time step continuity errors : sum local = 9.11171e-06, global = -5.07808e-18, cumulative = 2.08112e-17
Pressure gradient source: uncorrected Ubar = 1.00004, pressure gradient = -0.259744
smoothSolver:  Solving for omega, Initial residual = 9.72716e-06, Final residual = 9.72716e-06, No Iterations 0
smoothSolver:  Solving for k, Initial residual = 0.01438, Final residual = 0.00106067, No Iterations 6
ExecutionTime = 0.143995 s  ClockTime = 0 s

Time = 51s

smoothSolver:  Solving for Ux, Initial residual = 0.00565252, Final residual = 0.000424513, No Iterations 6
smoothSolver:  Solving for Uy, Initial residual = 0.0120338, Final residual = 0.00108, No Iterations 5
Pressure gradient source: uncorrected Ubar = 1.00036, pressure gradient = -0.404341
GAMG:  Solving for p, Initial residual = 0.0344508, Final residual = 0.00325114, No Iterations 8
time step continuity errors : sum local = 9.54086e-06, global = 5.98238e-18, cumulative = 2.67936e-17
Pressure gradient source: uncorrected Ubar = 1.00003, pressure gradient = -0.273338
smoothSolver:  Solving for omega, Initial residual = 9.74765e-06, Final residual = 9.74765e-06, No Iterations 0
smoothSolver:  Solving for k, Initial residual = 0.0144407, Final residual = 0.00106044, No Iterations 6
ExecutionTime = 0.146658 s  ClockTime = 0 s

Time = 52s

smoothSolver:  Solving for Ux, Initial residual = 0.00550299, Final residual = 0.00041985, No Iterations 6
smoothSolver:  Solving for Uy, Initial residual = 0.0119152, Final residual = 0.00113492, No Iterations 5
Pressure gradient source: uncorrected Ubar = 1.00035, pressure gradient = -0.40948
GAMG:  Solving for p, Initial residual = 0.0342339, Final residual = 0.00336922, No Iterations 8
time step continuity errors : sum local = 9.65323e-06, global = 1.70285e-18, cumulative = 2.84965e-17
Pressure gradient source: uncorrected Ubar = 1.00003, pressure gradient = -0.286233
smoothSolver:  Solving for omega, Initial residual = 9.75578e-06, Final residual = 9.75578e-06, No Iterations 0
smoothSolver:  Solving for k, Initial residual = 0.0144216, Final residual = 0.00105259, No Iterations 6
ExecutionTime = 0.149323 s  ClockTime = 0 s

Time = 53s

smoothSolver:  Solving for Ux, Initial residual = 0.0053473, Final residual = 0.000414418, No Iterations 6
smoothSolver:  Solving for Uy, Initial residual = 0.0118215, Final residual = 0.00115548, No Iterations 5
Pressure gradient source: uncorrected Ubar = 1.00033, pressure gradient = -0.41052
GAMG:  Solving for p, Initial residual = 0.0339539, Final residual = 0.00311725, No Iterations 10
time step continuity errors : sum local = 8.8096e-06, global = -8.6631e-18, cumulative = 1.98334e-17
Pressure gradient source: uncorrected Ubar = 1.00003, pressure gradient = -0.297989
smoothSolver:  Solving for omega, Initial residual = 9.75309e-06, Final residual = 9.75309e-06, No Iterations 0
smoothSolver:  Solving for k, Initial residual = 0.0143467, Final residual = 0.00104383, No Iterations 6
ExecutionTime = 0.15214 s  ClockTime = 0 s

Time = 54s

smoothSolver:  Solving for Ux, Initial residual = 0.00519364, Final residual = 0.000408779, No Iterations 6
smoothSolver:  Solving for Uy, Initial residual = 0.0116388, Final residual = 0.00115497, No Iterations 5
Pressure gradient source: uncorrected Ubar = 1.0003, pressure gradient = -0.40651
GAMG:  Solving for p, Initial residual = 0.035448, Final residual = 0.0033518, No Iterations 10
time step continuity errors : sum local = 9.04053e-06, global = 3.77521e-18, cumulative = 2.36086e-17
Pressure gradient source: uncorrected Ubar = 1.00003, pressure gradient = -0.308087
smoothSolver:  Solving for omega, Initial residual = 9.74365e-06, Final residual = 9.74365e-06, No Iterations 0
smoothSolver:  Solving for k, Initial residual = 0.0142008, Final residual = 0.00102635, No Iterations 6
ExecutionTime = 0.154924 s  ClockTime = 0 s

Time = 55s

smoothSolver:  Solving for Ux, Initial residual = 0.00505224, Final residual = 0.00040323, No Iterations 6
smoothSolver:  Solving for Uy, Initial residual = 0.0112934, Final residual = 0.00111327, No Iterations 5
Pressure gradient source: uncorrected Ubar = 1.00026, pressure gradient = -0.399201
GAMG:  Solving for p, Initial residual = 0.0353146, Final residual = 0.00324779, No Iterations 10
time step continuity errors : sum local = 8.17263e-06, global = 1.8066e-18, cumulative = 2.54152e-17
Pressure gradient source: uncorrected Ubar = 1.00002, pressure gradient = -0.316296
smoothSolver:  Solving for omega, Initial residual = 9.76894e-06, Final residual = 9.76894e-06, No Iterations 0
smoothSolver:  Solving for k, Initial residual = 0.0139404, Final residual = 0.00100471, No Iterations 6
ExecutionTime = 0.157677 s  ClockTime = 0 s

Time = 56s

smoothSolver:  Solving for Ux, Initial residual = 0.00491929, Final residual = 0.000397615, No Iterations 6
smoothSolver:  Solving for Uy, Initial residual = 0.0114191, Final residual = 0.000821203, No Iterations 6
Pressure gradient source: uncorrected Ubar = 1.00022, pressure gradient = -0.391096
GAMG:  Solving for p, Initial residual = 0.0380976, Final residual = 0.00376427, No Iterations 9
time step continuity errors : sum local = 8.96972e-06, global = 2.61585e-18, cumulative = 2.8031e-17
Pressure gradient source: uncorrected Ubar = 1.00002, pressure gradient = -0.322731
smoothSolver:  Solving for omega, Initial residual = 9.79356e-06, Final residual = 9.79356e-06, No Iterations 0
smoothSolver:  Solving for k, Initial residual = 0.0136323, Final residual = 0.00097759, No Iterations 6
ExecutionTime = 0.160386 s  ClockTime = 0 s

Time = 57s

smoothSolver:  Solving for Ux, Initial residual = 0.00478237, Final residual = 0.000391212, No Iterations 6
smoothSolver:  Solving for Uy, Initial residual = 0.0117081, Final residual = 0.000878913, No Iterations 6
Pressure gradient source: uncorrected Ubar = 1.00019, pressure gradient = -0.383978
GAMG:  Solving for p, Initial residual = 0.0378941, Final residual = 0.00349224, No Iterations 11
time step continuity errors : sum local = 8.18213e-06, global = 7.52197e-18, cumulative = 3.5553e-17
Pressure gradient source: uncorrected Ubar = 1.00002, pressure gradient = -0.327726
smoothSolver:  Solving for omega, Initial residual = 9.79568e-06, Final residual = 9.79568e-06, No Iterations 0
smoothSolver:  Solving for k, Initial residual = 0.0132673, Final residual = 0.000947665, No Iterations 6
ExecutionTime = 0.163198 s  ClockTime = 0 s

Time = 58s

smoothSolver:  Solving for Ux, Initial residual = 0.00463962, Final residual = 0.000383983, No Iterations 6
smoothSolver:  Solving for Uy, Initial residual = 0.011985, Final residual = 0.000909954, No Iterations 6
Pressure gradient source: uncorrected Ubar = 1.00015, pressure gradient = -0.37559
GAMG:  Solving for p, Initial residual = 0.0393936, Final residual = 0.00389408, No Iterations 11
time step continuity errors : sum local = 8.81999e-06, global = -9.46678e-19, cumulative = 3.46063e-17
Pressure gradient source: uncorrected Ubar = 1.00001, pressure gradient = -0.331276
smoothSolver:  Solving for omega, Initial residual = 9.79144e-06, Final residual = 9.79144e-06, No Iterations 0
smoothSolver:  Solving for k, Initial residual = 0.0128451, Final residual = 0.000915768, No Iterations 6
ExecutionTime = 0.166029 s  ClockTime = 0 s

Time = 59s

smoothSolver:  Solving for Ux, Initial residual = 0.00449155, Final residual = 0.000375906, No Iterations 6
smoothSolver:  Solving for Uy, Initial residual = 0.0123007, Final residual = 0.000930576, No Iterations 6
Pressure gradient source: uncorrected Ubar = 1.00011, pressure gradient = -0.365617
GAMG:  Solving for p, Initial residual = 0.0408415, Final residual = 0.00383596, No Iterations 12
time step continuity errors : sum local = 8.35314e-06, global = 1.99553e-18, cumulative = 3.66018e-17
Pressure gradient source: uncorrected Ubar = 1.00001, pressure gradient = -0.333328
smoothSolver:  Solving for omega, Initial residual = 9.78007e-06, Final residual = 9.78007e-06, No Iterations 0
smoothSolver:  Solving for k, Initial residual = 0.0123975, Final residual = 0.000882271, No Iterations 6
ExecutionTime = 0.168939 s  ClockTime = 0 s

Time = 60s

smoothSolver:  Solving for Ux, Initial residual = 0.0043471, Final residual = 0.00036746, No Iterations 6
smoothSolver:  Solving for Uy, Initial residual = 0.0123983, Final residual = 0.000914822, No Iterations 6
Pressure gradient source: uncorrected Ubar = 1.00007, pressure gradient = -0.353062
GAMG:  Solving for p, Initial residual = 0.0428134, Final residual = 0.00427026, No Iterations 10
time step continuity errors : sum local = 8.55662e-06, global = -6.00335e-18, cumulative = 3.05985e-17
Pressure gradient source: uncorrected Ubar = 1, pressure gradient = -0.333698
smoothSolver:  Solving for omega, Initial residual = 9.76897e-06, Final residual = 9.76897e-06, No Iterations 0
smoothSolver:  Solving for k, Initial residual = 0.0119162, Final residual = 0.000845939, No Iterations 6
ExecutionTime = 0.171734 s  ClockTime = 0 s

Time = 61s

smoothSolver:  Solving for Ux, Initial residual = 0.00421841, Final residual = 0.00035951, No Iterations 6
smoothSolver:  Solving for Uy, Initial residual = 0.0126937, Final residual = 0.0010076, No Iterations 6
Pressure gradient source: uncorrected Ubar = 1.00001, pressure gradient = -0.337684
GAMG:  Solving for p, Initial residual = 0.0423373, Final residual = 0.00384203, No Iterations 11
time step continuity errors : sum local = 7.47323e-06, global = -1.35197e-18, cumulative = 2.92465e-17
Pressure gradient source: uncorrected Ubar = 0.999995, pressure gradient = -0.332191
smoothSolver:  Solving for omega, Initial residual = 9.79053e-06, Final residual = 9.79053e-06, No Iterations 0
smoothSolver:  Solving for k, Initial residual = 0.0114135, Final residual = 0.000812129, No Iterations 6
ExecutionTime = 0.174602 s  ClockTime = 0 s

Time = 62s

smoothSolver:  Solving for Ux, Initial residual = 0.00409065, Final residual = 0.000351121, No Iterations 6
smoothSolver:  Solving for Uy, Initial residual = 0.013364, Final residual = 0.00107447, No Iterations 6
Pressure gradient source: uncorrected Ubar = 0.999976, pressure gradient = -0.325906
GAMG:  Solving for p, Initial residual = 0.0426746, Final residual = 0.0040344, No Iterations 11
time step continuity errors : sum local = 7.70118e-06, global = 7.46816e-18, cumulative = 3.67147e-17
Pressure gradient source: uncorrected Ubar = 0.99999, pressure gradient = -0.32951
smoothSolver:  Solving for omega, Initial residual = 9.81821e-06, Final residual = 9.81821e-06, No Iterations 0
smoothSolver:  Solving for k, Initial residual = 0.0109133, Final residual = 0.000775049, No Iterations 6
ExecutionTime = 0.177429 s  ClockTime = 0 s

Time = 63s

smoothSolver:  Solving for Ux, Initial residual = 0.00396471, Final residual = 0.000342623, No Iterations 6
smoothSolver:  Solving for Uy, Initial residual = 0.0138185, Final residual = 0.00111401, No Iterations 6
Pressure gradient source: uncorrected Ubar = 0.999934, pressure gradient = -0.31283
GAMG:  Solving for p, Initial residual = 0.0438511, Final residual = 0.00393661, No Iterations 12
time step continuity errors : sum local = 7.43814e-06, global = -1.5705e-18, cumulative = 3.51442e-17
Pressure gradient source: uncorrected Ubar = 0.999985, pressure gradient = -0.3256
smoothSolver:  Solving for omega, Initial residual = 9.82384e-06, Final residual = 9.82384e-06, No Iterations 0
smoothSolver:  Solving for k, Initial residual = 0.0104235, Final residual = 0.00074162, No Iterations 6
ExecutionTime = 0.18033 s  ClockTime = 0 s

Time = 64s

smoothSolver:  Solving for Ux, Initial residual = 0.00384452, Final residual = 0.000333998, No Iterations 6
smoothSolver:  Solving for Uy, Initial residual = 0.0140271, Final residual = 0.00112841, No Iterations 6
Pressure gradient source: uncorrected Ubar = 0.999897, pressure gradient = -0.300627
GAMG:  Solving for p, Initial residual = 0.043594, Final residual = 0.00416964, No Iterations 12
time step continuity errors : sum local = 7.64279e-06, global = -1.06192e-17, cumulative = 2.4525e-17
Pressure gradient source: uncorrected Ubar = 0.99998, pressure gradient = -0.32072
smoothSolver:  Solving for omega, Initial residual = 9.81421e-06, Final residual = 9.81421e-06, No Iterations 0
smoothSolver:  Solving for k, Initial residual = 0.00992338, Final residual = 0.000706939, No Iterations 6
ExecutionTime = 0.183301 s  ClockTime = 0 s

Time = 65s

smoothSolver:  Solving for Ux, Initial residual = 0.0037277, Final residual = 0.000325493, No Iterations 6
smoothSolver:  Solving for Uy, Initial residual = 0.0141739, Final residual = 0.00112766, No Iterations 6
Pressure gradient source: uncorrected Ubar = 0.999866, pressure gradient = -0.289818
GAMG:  Solving for p, Initial residual = 0.0438766, Final residual = 0.00421863, No Iterations 12
time step continuity errors : sum local = 7.34441e-06, global = -5.87386e-18, cumulative = 1.86512e-17
Pressure gradient source: uncorrected Ubar = 0.999976, pressure gradient = -0.315172
smoothSolver:  Solving for omega, Initial residual = 9.79914e-06, Final residual = 9.79914e-06, No Iterations 0
smoothSolver:  Solving for k, Initial residual = 0.00945823, Final residual = 0.000674812, No Iterations 6
ExecutionTime = 0.186295 s  ClockTime = 0 s

Time = 66s

smoothSolver:  Solving for Ux, Initial residual = 0.00361996, Final residual = 0.000317343, No Iterations 6
smoothSolver:  Solving for Uy, Initial residual = 0.013996, Final residual = 0.00109415, No Iterations 6
Pressure gradient source: uncorrected Ubar = 0.99984, pressure gradient = -0.279649
GAMG:  Solving for p, Initial residual = 0.044538, Final residual = 0.00416535, No Iterations 10
time step continuity errors : sum local = 6.58187e-06, global = 3.45087e-19, cumulative = 1.89962e-17
Pressure gradient source: uncorrected Ubar = 0.999973, pressure gradient = -0.309115
smoothSolver:  Solving for omega, Initial residual = 9.7781e-06, Final residual = 9.7781e-06, No Iterations 0
smoothSolver:  Solving for k, Initial residual = 0.00899764, Final residual = 0.000641434, No Iterations 6
ExecutionTime = 0.189078 s  ClockTime = 0 s

Time = 67s

smoothSolver:  Solving for Ux, Initial residual = 0.00353421, Final residual = 0.000310328, No Iterations 6
smoothSolver:  Solving for Uy, Initial residual = 0.0143393, Final residual = 0.00116525, No Iterations 6
Pressure gradient source: uncorrected Ubar = 0.999811, pressure gradient = -0.268623
GAMG:  Solving for p, Initial residual = 0.0419326, Final residual = 0.003963, No Iterations 9
time step continuity errors : sum local = 5.97214e-06, global = -8.34501e-18, cumulative = 1.06512e-17
Pressure gradient source: uncorrected Ubar = 0.999969, pressure gradient = -0.302481
smoothSolver:  Solving for omega, Initial residual = 9.74317e-06, Final residual = 9.74317e-06, No Iterations 0
smoothSolver:  Solving for k, Initial residual = 0.00855045, Final residual = 0.000614268, No Iterations 6
ExecutionTime = 0.191807 s  ClockTime = 0 s

Time = 68s

smoothSolver:  Solving for Ux, Initial residual = 0.003454, Final residual = 0.000303856, No Iterations 6
smoothSolver:  Solving for Uy, Initial residual = 0.0150134, Final residual = 0.00122874, No Iterations 6
Pressure gradient source: uncorrected Ubar = 0.999801, pressure gradient = -0.261401
GAMG:  Solving for p, Initial residual = 0.0388623, Final residual = 0.00347988, No Iterations 9
time step continuity errors : sum local = 5.23096e-06, global = 2.17192e-18, cumulative = 1.28231e-17
Pressure gradient source: uncorrected Ubar = 0.999968, pressure gradient = -0.295867
smoothSolver:  Solving for omega, Initial residual = 9.6964e-06, Final residual = 9.6964e-06, No Iterations 0
smoothSolver:  Solving for k, Initial residual = 0.00812446, Final residual = 0.000582922, No Iterations 6
ExecutionTime = 0.194568 s  ClockTime = 0 s

Time = 69s

smoothSolver:  Solving for Ux, Initial residual = 0.00338609, Final residual = 0.000297763, No Iterations 6
smoothSolver:  Solving for Uy, Initial residual = 0.0152945, Final residual = 0.00125437, No Iterations 6
Pressure gradient source: uncorrected Ubar = 0.999794, pressure gradient = -0.254673
GAMG:  Solving for p, Initial residual = 0.035363, Final residual = 0.00330527, No Iterations 9
time step continuity errors : sum local = 5.0444e-06, global = -6.30632e-18, cumulative = 6.51683e-18
Pressure gradient source: uncorrected Ubar = 0.999967, pressure gradient = -0.289325
smoothSolver:  Solving for omega, Initial residual = 9.61463e-06, Final residual = 9.61463e-06, No Iterations 0
smoothSolver:  Solving for k, Initial residual = 0.00774602, Final residual = 0.000558375, No Iterations 6
ExecutionTime = 0.197298 s  ClockTime = 0 s

Time = 70s

smoothSolver:  Solving for Ux, Initial residual = 0.00332894, Final residual = 0.00029213, No Iterations 6
smoothSolver:  Solving for Uy, Initial residual = 0.0153475, Final residual = 0.00126347, No Iterations 6
Pressure gradient source: uncorrected Ubar = 0.999791, pressure gradient = -0.248657
GAMG:  Solving for p, Initial residual = 0.0332966, Final residual = 0.0031392, No Iterations 8
time step continuity errors : sum local = 4.78888e-06, global = -2.98714e-18, cumulative = 3.52969e-18
Pressure gradient source: uncorrected Ubar = 0.999967, pressure gradient = -0.282933
smoothSolver:  Solving for omega, Initial residual = 9.61082e-06, Final residual = 9.61082e-06, No Iterations 0
smoothSolver:  Solving for k, Initial residual = 0.00736919, Final residual = 0.000530143, No Iterations 6
ExecutionTime = 0.19997 s  ClockTime = 0 s

Time = 71s

smoothSolver:  Solving for Ux, Initial residual = 0.00327418, Final residual = 0.000286969, No Iterations 6
smoothSolver:  Solving for Uy, Initial residual = 0.0149758, Final residual = 0.00123556, No Iterations 6
Pressure gradient source: uncorrected Ubar = 0.99979, pressure gradient = -0.243187
GAMG:  Solving for p, Initial residual = 0.0329385, Final residual = 0.00319171, No Iterations 6
time step continuity errors : sum local = 4.76685e-06, global = -1.85951e-18, cumulative = 1.67018e-18
Pressure gradient source: uncorrected Ubar = 0.999967, pressure gradient = -0.276735
smoothSolver:  Solving for omega, Initial residual = 9.59578e-06, Final residual = 9.59578e-06, No Iterations 0
smoothSolver:  Solving for k, Initial residual = 0.00700378, Final residual = 0.000510088, No Iterations 6
ExecutionTime = 0.202635 s  ClockTime = 0 s

Time = 72s

smoothSolver:  Solving for Ux, Initial residual = 0.00322264, Final residual = 0.000282073, No Iterations 6
smoothSolver:  Solving for Uy, Initial residual = 0.0150316, Final residual = 0.00124012, No Iterations 6
Pressure gradient source: uncorrected Ubar = 0.999791, pressure gradient = -0.237964
GAMG:  Solving for p, Initial residual = 0.0323072, Final residual = 0.00318211, No Iterations 4
time step continuity errors : sum local = 4.70177e-06, global = -1.143e-17, cumulative = -9.75978e-18
Pressure gradient source: uncorrected Ubar = 0.999968, pressure gradient = -0.270729
smoothSolver:  Solving for omega, Initial residual = 9.49983e-06, Final residual = 9.49983e-06, No Iterations 0
smoothSolver:  Solving for k, Initial residual = 0.00664373, Final residual = 0.000483637, No Iterations 6
ExecutionTime = 0.205156 s  ClockTime = 0 s

Time = 73s

smoothSolver:  Solving for Ux, Initial residual = 0.00318498, Final residual = 0.000277649, No Iterations 6
smoothSolver:  Solving for Uy, Initial residual = 0.0147746, Final residual = 0.00121464, No Iterations 6
Pressure gradient source: uncorrected Ubar = 0.999796, pressure gradient = -0.233819
GAMG:  Solving for p, Initial residual = 0.0309341, Final residual = 0.00260396, No Iterations 4
time step continuity errors : sum local = 3.68646e-06, global = 3.23631e-18, cumulative = -6.52347e-18
Pressure gradient source: uncorrected Ubar = 0.999969, pressure gradient = -0.265032
smoothSolver:  Solving for omega, Initial residual = 9.23366e-06, Final residual = 9.23366e-06, No Iterations 0
smoothSolver:  Solving for k, Initial residual = 0.00632076, Final residual = 0.000464012, No Iterations 6
ExecutionTime = 0.207641 s  ClockTime = 0 s

Time = 74s

smoothSolver:  Solving for Ux, Initial residual = 0.0031556, Final residual = 0.000274017, No Iterations 6
smoothSolver:  Solving for Uy, Initial residual = 0.014949, Final residual = 0.00125037, No Iterations 6
Pressure gradient source: uncorrected Ubar = 0.999796, pressure gradient = -0.228847
GAMG:  Solving for p, Initial residual = 0.0312327, Final residual = 0.00292891, No Iterations 4
time step continuity errors : sum local = 4.34697e-06, global = 7.29126e-18, cumulative = 7.67791e-19
Pressure gradient source: uncorrected Ubar = 0.999969, pressure gradient = -0.259478
smoothSolver:  Solving for omega, Initial residual = 9.05858e-06, Final residual = 9.05858e-06, No Iterations 0
smoothSolver:  Solving for k, Initial residual = 0.00601989, Final residual = 0.000441675, No Iterations 6
ExecutionTime = 0.210131 s  ClockTime = 0 s

Time = 75s

smoothSolver:  Solving for Ux, Initial residual = 0.00313288, Final residual = 0.000271046, No Iterations 6
smoothSolver:  Solving for Uy, Initial residual = 0.0156527, Final residual = 0.00131763, No Iterations 6
Pressure gradient source: uncorrected Ubar = 0.999805, pressure gradient = -0.225508
GAMG:  Solving for p, Initial residual = 0.032389, Final residual = 0.00302843, No Iterations 3
time step continuity errors : sum local = 4.70899e-06, global = 1.49048e-17, cumulative = 1.56726e-17
Pressure gradient source: uncorrected Ubar = 0.99997, pressure gradient = -0.254269
smoothSolver:  Solving for omega, Initial residual = 8.88742e-06, Final residual = 8.88742e-06, No Iterations 0
smoothSolver:  Solving for k, Initial residual = 0.00573583, Final residual = 0.000425248, No Iterations 6
ExecutionTime = 0.212613 s  ClockTime = 0 s

Time = 76s

smoothSolver:  Solving for Ux, Initial residual = 0.00311238, Final residual = 0.000268482, No Iterations 6
smoothSolver:  Solving for Uy, Initial residual = 0.0161527, Final residual = 0.00135989, No Iterations 6
Pressure gradient source: uncorrected Ubar = 0.999815, pressure gradient = -0.222514
GAMG:  Solving for p, Initial residual = 0.0314233, Final residual = 0.0028863, No Iterations 3
time step continuity errors : sum local = 4.54736e-06, global = 4.9724e-18, cumulative = 2.0645e-17
Pressure gradient source: uncorrected Ubar = 0.999972, pressure gradient = -0.249398
smoothSolver:  Solving for omega, Initial residual = 8.57099e-06, Final residual = 8.57099e-06, No Iterations 0
smoothSolver:  Solving for k, Initial residual = 0.00547293, Final residual = 0.00040476, No Iterations 6
ExecutionTime = 0.215069 s  ClockTime = 0 s

Time = 77s

smoothSolver:  Solving for Ux, Initial residual = 0.00309203, Final residual = 0.000265878, No Iterations 6
smoothSolver:  Solving for Uy, Initial residual = 0.0163117, Final residual = 0.00137543, No Iterations 6
Pressure gradient source: uncorrected Ubar = 0.999825, pressure gradient = -0.219802
GAMG:  Solving for p, Initial residual = 0.0307154, Final residual = 0.000994475, No Iterations 4
time step continuity errors : sum local = 1.66608e-06, global = 1.24027e-18, cumulative = 2.18853e-17
Pressure gradient source: uncorrected Ubar = 0.999973, pressure gradient = -0.244854
smoothSolver:  Solving for omega, Initial residual = 8.52849e-06, Final residual = 8.52849e-06, No Iterations 0
smoothSolver:  Solving for k, Initial residual = 0.00521723, Final residual = 0.000389373, No Iterations 6
ExecutionTime = 0.217643 s  ClockTime = 0 s

Time = 78s

smoothSolver:  Solving for Ux, Initial residual = 0.00307338, Final residual = 0.0002633, No Iterations 6
smoothSolver:  Solving for Uy, Initial residual = 0.0164633, Final residual = 0.00138769, No Iterations 6
Pressure gradient source: uncorrected Ubar = 0.999835, pressure gradient = -0.217333
GAMG:  Solving for p, Initial residual = 0.0305622, Final residual = 0.00201152, No Iterations 3
time step continuity errors : sum local = 2.83043e-06, global = -4.33977e-18, cumulative = 1.75455e-17
Pressure gradient source: uncorrected Ubar = 0.999975, pressure gradient = -0.240619
smoothSolver:  Solving for omega, Initial residual = 8.50817e-06, Final residual = 8.50817e-06, No Iterations 0
smoothSolver:  Solving for k, Initial residual = 0.00498203, Final residual = 0.00037086, No Iterations 6
ExecutionTime = 0.220086 s  ClockTime = 0 s

Time = 79s

smoothSolver:  Solving for Ux, Initial residual = 0.0030526, Final residual = 0.000260656, No Iterations 6
smoothSolver:  Solving for Uy, Initial residual = 0.0162894, Final residual = 0.00136707, No Iterations 6
Pressure gradient source: uncorrected Ubar = 0.999846, pressure gradient = -0.215152
GAMG:  Solving for p, Initial residual = 0.0305363, Final residual = 0.00259639, No Iterations 3
time step continuity errors : sum local = 3.66418e-06, global = 9.46134e-18, cumulative = 2.70068e-17
Pressure gradient source: uncorrected Ubar = 0.999976, pressure gradient = -0.236689
smoothSolver:  Solving for omega, Initial residual = 8.49853e-06, Final residual = 8.49853e-06, No Iterations 0
smoothSolver:  Solving for k, Initial residual = 0.00475181, Final residual = 0.000358479, No Iterations 6
ExecutionTime = 0.222554 s  ClockTime = 0 s

Time = 80s

smoothSolver:  Solving for Ux, Initial residual = 0.00303164, Final residual = 0.000257917, No Iterations 6
smoothSolver:  Solving for Uy, Initial residual = 0.0162414, Final residual = 0.00135206, No Iterations 6
Pressure gradient source: uncorrected Ubar = 0.999852, pressure gradient = -0.212486
GAMG:  Solving for p, Initial residual = 0.0347309, Final residual = 0.00302621, No Iterations 6
time step continuity errors : sum local = 4.45019e-06, global = -6.12087e-18, cumulative = 2.0886e-17
Pressure gradient source: uncorrected Ubar = 0.999977, pressure gradient = -0.23295
smoothSolver:  Solving for omega, Initial residual = 8.48969e-06, Final residual = 8.48969e-06, No Iterations 0
smoothSolver:  Solving for k, Initial residual = 0.0045315, Final residual = 0.000340579, No Iterations 6
ExecutionTime = 0.225148 s  ClockTime = 0 s

Time = 81s

smoothSolver:  Solving for Ux, Initial residual = 0.00301001, Final residual = 0.000255252, No Iterations 6
smoothSolver:  Solving for Uy, Initial residual = 0.016277, Final residual = 0.00133112, No Iterations 6
Pressure gradient source: uncorrected Ubar = 0.999855, pressure gradient = -0.209577
GAMG:  Solving for p, Initial residual = 0.0340702, Final residual = 0.00335863, No Iterations 6
time step continuity errors : sum local = 4.96907e-06, global = 7.33099e-18, cumulative = 2.8217e-17
Pressure gradient source: uncorrected Ubar = 0.999978, pressure gradient = -0.229341
smoothSolver:  Solving for omega, Initial residual = 8.47309e-06, Final residual = 8.47309e-06, No Iterations 0
smoothSolver:  Solving for k, Initial residual = 0.00433079, Final residual = 0.000328992, No Iterations 6
ExecutionTime = 0.227724 s  ClockTime = 0 s

Time = 82s

smoothSolver:  Solving for Ux, Initial residual = 0.0029839, Final residual = 0.000252566, No Iterations 6
smoothSolver:  Solving for Uy, Initial residual = 0.0163369, Final residual = 0.00129525, No Iterations 6
Pressure gradient source: uncorrected Ubar = 0.999866, pressure gradient = -0.207818
GAMG:  Solving for p, Initial residual = 0.0339752, Final residual = 0.00311124, No Iterations 7
time step continuity errors : sum local = 4.46721e-06, global = -5.19107e-18, cumulative = 2.30259e-17
Pressure gradient source: uncorrected Ubar = 0.999979, pressure gradient = -0.226
smoothSolver:  Solving for omega, Initial residual = 8.4583e-06, Final residual = 8.4583e-06, No Iterations 0
smoothSolver:  Solving for k, Initial residual = 0.00413624, Final residual = 0.000313974, No Iterations 6
ExecutionTime = 0.230357 s  ClockTime = 0 s

Time = 83s

smoothSolver:  Solving for Ux, Initial residual = 0.00296572, Final residual = 0.000250072, No Iterations 6
smoothSolver:  Solving for Uy, Initial residual = 0.0163688, Final residual = 0.00131543, No Iterations 6
Pressure gradient source: uncorrected Ubar = 0.999872, pressure gradient = -0.205603
GAMG:  Solving for p, Initial residual = 0.034585, Final residual = 0.00321707, No Iterations 8
time step continuity errors : sum local = 4.87583e-06, global = 1.43416e-18, cumulative = 2.44601e-17
Pressure gradient source: uncorrected Ubar = 0.99998, pressure gradient = -0.222827
smoothSolver:  Solving for omega, Initial residual = 8.44355e-06, Final residual = 8.44355e-06, No Iterations 0
smoothSolver:  Solving for k, Initial residual = 0.00396077, Final residual = 0.000304384, No Iterations 6
ExecutionTime = 0.233047 s  ClockTime = 0 s

Time = 84s

smoothSolver:  Solving for Ux, Initial residual = 0.00295062, Final residual = 0.000247778, No Iterations 6
smoothSolver:  Solving for Uy, Initial residual = 0.016546, Final residual = 0.00136798, No Iterations 6
Pressure gradient source: uncorrected Ubar = 0.999876, pressure gradient = -0.203282
GAMG:  Solving for p, Initial residual = 0.0406585, Final residual = 0.00377401, No Iterations 8
time step continuity errors : sum local = 5.4379e-06, global = -3.29086e-20, cumulative = 2.44271e-17
Pressure gradient source: uncorrected Ubar = 0.999981, pressure gradient = -0.219781
smoothSolver:  Solving for omega, Initial residual = 8.42557e-06, Final residual = 8.42557e-06, No Iterations 0
smoothSolver:  Solving for k, Initial residual = 0.00379066, Final residual = 0.000290027, No Iterations 6
ExecutionTime = 0.235802 s  ClockTime = 0 s

Time = 85s

smoothSolver:  Solving for Ux, Initial residual = 0.00293553, Final residual = 0.000245544, No Iterations 6
smoothSolver:  Solving for Uy, Initial residual = 0.017123, Final residual = 0.00139971, No Iterations 6
Pressure gradient source: uncorrected Ubar = 0.999883, pressure gradient = -0.201439
GAMG:  Solving for p, Initial residual = 0.0387606, Final residual = 0.00383647, No Iterations 7
time step continuity errors : sum local = 5.17159e-06, global = 1.11225e-18, cumulative = 2.55394e-17
Pressure gradient source: uncorrected Ubar = 0.999982, pressure gradient = -0.21691
smoothSolver:  Solving for omega, Initial residual = 8.40702e-06, Final residual = 8.40702e-06, No Iterations 0
smoothSolver:  Solving for k, Initial residual = 0.00363785, Final residual = 0.000281067, No Iterations 6
ExecutionTime = 0.238454 s  ClockTime = 0 s

Time = 86s

smoothSolver:  Solving for Ux, Initial residual = 0.00291918, Final residual = 0.00024343, No Iterations 6
smoothSolver:  Solving for Uy, Initial residual = 0.0169971, Final residual = 0.00137923, No Iterations 6
Pressure gradient source: uncorrected Ubar = 0.999881, pressure gradient = -0.198373
GAMG:  Solving for p, Initial residual = 0.0392064, Final residual = 0.00336911, No Iterations 9
time step continuity errors : sum local = 4.26712e-06, global = -1.18479e-17, cumulative = 1.36915e-17
Pressure gradient source: uncorrected Ubar = 0.999981, pressure gradient = -0.214019
smoothSolver:  Solving for omega, Initial residual = 8.38919e-06, Final residual = 8.38919e-06, No Iterations 0
smoothSolver:  Solving for k, Initial residual = 0.00349353, Final residual = 0.000269828, No Iterations 6
ExecutionTime = 0.241169 s  ClockTime = 0 s

Time = 87s

smoothSolver:  Solving for Ux, Initial residual = 0.00279938, Final residual = 0.000241877, No Iterations 6
smoothSolver:  Solving for Uy, Initial residual = 0.0163069, Final residual = 0.00136911, No Iterations 6
Pressure gradient source: uncorrected Ubar = 0.999872, pressure gradient = -0.19428
GAMG:  Solving for p, Initial residual = 0.0484296, Final residual = 0.00411419, No Iterations 8
time step continuity errors : sum local = 5.20483e-06, global = -8.84673e-19, cumulative = 1.28068e-17
Pressure gradient source: uncorrected Ubar = 0.99998, pressure gradient = -0.210968
smoothSolver:  Solving for omega, Initial residual = 8.37502e-06, Final residual = 8.37502e-06, No Iterations 0
smoothSolver:  Solving for k, Initial residual = 0.00336879, Final residual = 0.000262215, No Iterations 6
ExecutionTime = 0.243854 s  ClockTime = 0 s

Time = 88s

smoothSolver:  Solving for Ux, Initial residual = 0.00275054, Final residual = 0.00024082, No Iterations 6
smoothSolver:  Solving for Uy, Initial residual = 0.0161194, Final residual = 0.00134777, No Iterations 6
Pressure gradient source: uncorrected Ubar = 0.999872, pressure gradient = -0.191339
GAMG:  Solving for p, Initial residual = 0.0409231, Final residual = 0.00352986, No Iterations 6
time step continuity errors : sum local = 4.49447e-06, global = -8.58629e-18, cumulative = 4.2205e-18
Pressure gradient source: uncorrected Ubar = 0.99998, pressure gradient = -0.207935
smoothSolver:  Solving for omega, Initial residual = 8.36412e-06, Final residual = 8.36412e-06, No Iterations 0
smoothSolver:  Solving for k, Initial residual = 0.00325481, Final residual = 0.000253395, No Iterations 6
ExecutionTime = 0.246438 s  ClockTime = 0 s

Time = 89s

smoothSolver:  Solving for Ux, Initial residual = 0.00273188, Final residual = 0.000240023, No Iterations 6
smoothSolver:  Solving for Uy, Initial residual = 0.0159019, Final residual = 0.0013159, No Iterations 6
Pressure gradient source: uncorrected Ubar = 0.999879, pressure gradient = -0.189378
GAMG:  Solving for p, Initial residual = 0.0318516, Final residual = 0.0028834, No Iterations 8
[...]
smoothSolver:  Solving for omega, Initial residual = 6.86263e-06, Final residual = 6.86263e-06, No Iterations 0
smoothSolver:  Solving for k, Initial residual = 1.09543e-05, Final residual = 7.22309e-06, No Iterations 1
ExecutionTime = 4.89275 s  ClockTime = 5 s

Time = 1820s

smoothSolver:  Solving for Ux, Initial residual = 9.61734e-06, Final residual = 9.61734e-06, No Iterations 0
smoothSolver:  Solving for Uy, Initial residual = 0.000113635, Final residual = 8.1783e-06, No Iterations 6
Pressure gradient source: uncorrected Ubar = 1, pressure gradient = 0.0211759
GAMG:  Solving for p, Initial residual = 3.00619e-05, Final residual = 2.98593e-06, No Iterations 15
time step continuity errors : sum local = 9.27541e-11, global = 6.83377e-18, cumulative = 8.79923e-18
Pressure gradient source: uncorrected Ubar = 1, pressure gradient = 0.0211761
smoothSolver:  Solving for omega, Initial residual = 6.86263e-06, Final residual = 6.86263e-06, No Iterations 0
smoothSolver:  Solving for k, Initial residual = 1.09287e-05, Final residual = 7.20617e-06, No Iterations 1
ExecutionTime = 4.89571 s  ClockTime = 5 s

Time = 1821s

smoothSolver:  Solving for Ux, Initial residual = 9.61274e-06, Final residual = 9.61274e-06, No Iterations 0
smoothSolver:  Solving for Uy, Initial residual = 0.000112851, Final residual = 8.1205e-06, No Iterations 6
Pressure gradient source: uncorrected Ubar = 1, pressure gradient = 0.0211761
GAMG:  Solving for p, Initial residual = 2.99161e-05, Final residual = 2.98621e-06, No Iterations 15
time step continuity errors : sum local = 9.28364e-11, global = 1.56033e-18, cumulative = 1.03596e-17
Pressure gradient source: uncorrected Ubar = 1, pressure gradient = 0.0211762
smoothSolver:  Solving for omega, Initial residual = 6.86263e-06, Final residual = 6.86263e-06, No Iterations 0
smoothSolver:  Solving for k, Initial residual = 1.0903e-05, Final residual = 7.18927e-06, No Iterations 1
ExecutionTime = 4.89859 s  ClockTime = 5 s

Time = 1822s

smoothSolver:  Solving for Ux, Initial residual = 9.60811e-06, Final residual = 9.60811e-06, No Iterations 0
smoothSolver:  Solving for Uy, Initial residual = 0.000112213, Final residual = 8.07215e-06, No Iterations 6
Pressure gradient source: uncorrected Ubar = 1, pressure gradient = 0.0211762
GAMG:  Solving for p, Initial residual = 2.97602e-05, Final residual = 2.97218e-06, No Iterations 15
time step continuity errors : sum local = 9.24282e-11, global = -5.44018e-19, cumulative = 9.81554e-18
Pressure gradient source: uncorrected Ubar = 1, pressure gradient = 0.0211764
smoothSolver:  Solving for omega, Initial residual = 6.86264e-06, Final residual = 6.86264e-06, No Iterations 0
smoothSolver:  Solving for k, Initial residual = 1.08774e-05, Final residual = 7.17238e-06, No Iterations 1
ExecutionTime = 4.90153 s  ClockTime = 5 s

Time = 1823s

smoothSolver:  Solving for Ux, Initial residual = 9.60345e-06, Final residual = 9.60345e-06, No Iterations 0
smoothSolver:  Solving for Uy, Initial residual = 0.000111606, Final residual = 8.02485e-06, No Iterations 6
Pressure gradient source: uncorrected Ubar = 1, pressure gradient = 0.0211764
GAMG:  Solving for p, Initial residual = 2.95936e-05, Final residual = 2.95119e-06, No Iterations 15
time step continuity errors : sum local = 9.17858e-11, global = 5.39882e-18, cumulative = 1.52144e-17
Pressure gradient source: uncorrected Ubar = 1, pressure gradient = 0.0211765
smoothSolver:  Solving for omega, Initial residual = 6.86264e-06, Final residual = 6.86264e-06, No Iterations 0
smoothSolver:  Solving for k, Initial residual = 1.08518e-05, Final residual = 7.1555e-06, No Iterations 1
ExecutionTime = 4.90445 s  ClockTime = 5 s

Time = 1824s

smoothSolver:  Solving for Ux, Initial residual = 9.59883e-06, Final residual = 9.59883e-06, No Iterations 0
smoothSolver:  Solving for Uy, Initial residual = 0.000110999, Final residual = 7.97697e-06, No Iterations 6
Pressure gradient source: uncorrected Ubar = 1, pressure gradient = 0.0211765
GAMG:  Solving for p, Initial residual = 2.9418e-05, Final residual = 2.92673e-06, No Iterations 15
time step continuity errors : sum local = 9.10339e-11, global = -2.11438e-18, cumulative = 1.31e-17
Pressure gradient source: uncorrected Ubar = 1, pressure gradient = 0.0211767
smoothSolver:  Solving for omega, Initial residual = 6.86264e-06, Final residual = 6.86264e-06, No Iterations 0
smoothSolver:  Solving for k, Initial residual = 1.08263e-05, Final residual = 7.13864e-06, No Iterations 1
ExecutionTime = 4.90732 s  ClockTime = 5 s

Time = 1825s

smoothSolver:  Solving for Ux, Initial residual = 9.59425e-06, Final residual = 9.59425e-06, No Iterations 0
smoothSolver:  Solving for Uy, Initial residual = 0.000110364, Final residual = 7.92749e-06, No Iterations 6
Pressure gradient source: uncorrected Ubar = 1, pressure gradient = 0.0211767
GAMG:  Solving for p, Initial residual = 2.92363e-05, Final residual = 2.90014e-06, No Iterations 15
time step continuity errors : sum local = 9.022e-11, global = -4.8947e-18, cumulative = 8.20529e-18
Pressure gradient source: uncorrected Ubar = 1, pressure gradient = 0.0211768
smoothSolver:  Solving for omega, Initial residual = 6.86264e-06, Final residual = 6.86264e-06, No Iterations 0
smoothSolver:  Solving for k, Initial residual = 1.08007e-05, Final residual = 7.12179e-06, No Iterations 1
ExecutionTime = 4.91026 s  ClockTime = 5 s

Time = 1826s

smoothSolver:  Solving for Ux, Initial residual = 9.5897e-06, Final residual = 9.5897e-06, No Iterations 0
smoothSolver:  Solving for Uy, Initial residual = 0.000109712, Final residual = 7.87681e-06, No Iterations 6
Pressure gradient source: uncorrected Ubar = 1, pressure gradient = 0.0211768
GAMG:  Solving for p, Initial residual = 2.905e-05, Final residual = 2.87178e-06, No Iterations 15
time step continuity errors : sum local = 8.93547e-11, global = -3.44596e-19, cumulative = 7.86069e-18
Pressure gradient source: uncorrected Ubar = 1, pressure gradient = 0.0211769
smoothSolver:  Solving for omega, Initial residual = 6.86264e-06, Final residual = 6.86264e-06, No Iterations 0
smoothSolver:  Solving for k, Initial residual = 1.07752e-05, Final residual = 7.10496e-06, No Iterations 1
ExecutionTime = 4.91316 s  ClockTime = 5 s

Time = 1827s

smoothSolver:  Solving for Ux, Initial residual = 9.58519e-06, Final residual = 9.58519e-06, No Iterations 0
smoothSolver:  Solving for Uy, Initial residual = 0.00010907, Final residual = 7.8256e-06, No Iterations 6
Pressure gradient source: uncorrected Ubar = 1, pressure gradient = 0.0211769
GAMG:  Solving for p, Initial residual = 2.88604e-05, Final residual = 2.84169e-06, No Iterations 15
time step continuity errors : sum local = 8.84377e-11, global = -5.80329e-18, cumulative = 2.0574e-18
Pressure gradient source: uncorrected Ubar = 1, pressure gradient = 0.0211771
smoothSolver:  Solving for omega, Initial residual = 6.86264e-06, Final residual = 6.86264e-06, No Iterations 0
smoothSolver:  Solving for k, Initial residual = 1.07497e-05, Final residual = 7.08814e-06, No Iterations 1
ExecutionTime = 4.91603 s  ClockTime = 5 s

Time = 1828s

smoothSolver:  Solving for Ux, Initial residual = 9.58064e-06, Final residual = 9.58064e-06, No Iterations 0
smoothSolver:  Solving for Uy, Initial residual = 0.000108428, Final residual = 7.77439e-06, No Iterations 6
Pressure gradient source: uncorrected Ubar = 1, pressure gradient = 0.0211771
GAMG:  Solving for p, Initial residual = 2.86679e-05, Final residual = 2.80983e-06, No Iterations 15
time step continuity errors : sum local = 8.74668e-11, global = 3.08493e-18, cumulative = 5.14233e-18
Pressure gradient source: uncorrected Ubar = 1, pressure gradient = 0.0211772
smoothSolver:  Solving for omega, Initial residual = 6.86264e-06, Final residual = 6.86264e-06, No Iterations 0
smoothSolver:  Solving for k, Initial residual = 1.07243e-05, Final residual = 7.07134e-06, No Iterations 1
ExecutionTime = 4.91891 s  ClockTime = 5 s

Time = 1829s

smoothSolver:  Solving for Ux, Initial residual = 9.57607e-06, Final residual = 9.57607e-06, No Iterations 0
smoothSolver:  Solving for Uy, Initial residual = 0.000107783, Final residual = 7.72443e-06, No Iterations 6
Pressure gradient source: uncorrected Ubar = 1, pressure gradient = 0.0211772
GAMG:  Solving for p, Initial residual = 2.84726e-05, Final residual = 2.77616e-06, No Iterations 15
time step continuity errors : sum local = 8.64403e-11, global = 5.2549e-18, cumulative = 1.03972e-17
Pressure gradient source: uncorrected Ubar = 1, pressure gradient = 0.0211774
smoothSolver:  Solving for omega, Initial residual = 6.86264e-06, Final residual = 6.86264e-06, No Iterations 0
smoothSolver:  Solving for k, Initial residual = 1.06988e-05, Final residual = 7.05455e-06, No Iterations 1
ExecutionTime = 4.92183 s  ClockTime = 5 s

Time = 1830s

smoothSolver:  Solving for Ux, Initial residual = 9.57147e-06, Final residual = 9.57147e-06, No Iterations 0
smoothSolver:  Solving for Uy, Initial residual = 0.000107134, Final residual = 7.67445e-06, No Iterations 6
Pressure gradient source: uncorrected Ubar = 1, pressure gradient = 0.0211774
GAMG:  Solving for p, Initial residual = 2.82746e-05, Final residual = 2.74067e-06, No Iterations 15
time step continuity errors : sum local = 8.53572e-11, global = -4.2058e-19, cumulative = 9.97665e-18
Pressure gradient source: uncorrected Ubar = 1, pressure gradient = 0.0211775
smoothSolver:  Solving for omega, Initial residual = 6.86264e-06, Final residual = 6.86264e-06, No Iterations 0
smoothSolver:  Solving for k, Initial residual = 1.06734e-05, Final residual = 7.03778e-06, No Iterations 1
ExecutionTime = 4.92473 s  ClockTime = 5 s

Time = 1831s

smoothSolver:  Solving for Ux, Initial residual = 9.56684e-06, Final residual = 9.56684e-06, No Iterations 0
smoothSolver:  Solving for Uy, Initial residual = 0.000106494, Final residual = 7.62442e-06, No Iterations 6
Pressure gradient source: uncorrected Ubar = 1, pressure gradient = 0.0211775
GAMG:  Solving for p, Initial residual = 2.80742e-05, Final residual = 2.70334e-06, No Iterations 15
time step continuity errors : sum local = 8.42166e-11, global = 7.33922e-19, cumulative = 1.07106e-17
Pressure gradient source: uncorrected Ubar = 1, pressure gradient = 0.0211777
smoothSolver:  Solving for omega, Initial residual = 6.86264e-06, Final residual = 6.86264e-06, No Iterations 0
smoothSolver:  Solving for k, Initial residual = 1.0648e-05, Final residual = 7.02102e-06, No Iterations 1
ExecutionTime = 4.92768 s  ClockTime = 5 s

Time = 1832s

smoothSolver:  Solving for Ux, Initial residual = 9.56219e-06, Final residual = 9.56219e-06, No Iterations 0
smoothSolver:  Solving for Uy, Initial residual = 0.000105862, Final residual = 7.57426e-06, No Iterations 6
Pressure gradient source: uncorrected Ubar = 1, pressure gradient = 0.0211777
GAMG:  Solving for p, Initial residual = 2.78746e-05, Final residual = 2.66413e-06, No Iterations 15
time step continuity errors : sum local = 8.30179e-11, global = -4.37604e-18, cumulative = 6.33453e-18
Pressure gradient source: uncorrected Ubar = 1, pressure gradient = 0.0211778
smoothSolver:  Solving for omega, Initial residual = 6.86264e-06, Final residual = 6.86264e-06, No Iterations 0
smoothSolver:  Solving for k, Initial residual = 1.06226e-05, Final residual = 7.00427e-06, No Iterations 1
ExecutionTime = 4.93058 s  ClockTime = 5 s

Time = 1833s

smoothSolver:  Solving for Ux, Initial residual = 9.55751e-06, Final residual = 9.55751e-06, No Iterations 0
smoothSolver:  Solving for Uy, Initial residual = 0.000105227, Final residual = 7.52425e-06, No Iterations 6
Pressure gradient source: uncorrected Ubar = 1, pressure gradient = 0.0211778
GAMG:  Solving for p, Initial residual = 2.76744e-05, Final residual = 2.62303e-06, No Iterations 15
time step continuity errors : sum local = 8.17601e-11, global = -1.1743e-18, cumulative = 5.16023e-18
Pressure gradient source: uncorrected Ubar = 1, pressure gradient = 0.0211779
smoothSolver:  Solving for omega, Initial residual = 6.86264e-06, Final residual = 6.86264e-06, No Iterations 0
smoothSolver:  Solving for k, Initial residual = 1.05972e-05, Final residual = 6.98754e-06, No Iterations 1
ExecutionTime = 4.93347 s  ClockTime = 5 s

Time = 1834s

smoothSolver:  Solving for Ux, Initial residual = 9.5528e-06, Final residual = 9.5528e-06, No Iterations 0
smoothSolver:  Solving for Uy, Initial residual = 0.000104589, Final residual = 7.47524e-06, No Iterations 6
Pressure gradient source: uncorrected Ubar = 1, pressure gradient = 0.0211779
GAMG:  Solving for p, Initial residual = 2.74757e-05, Final residual = 2.58001e-06, No Iterations 15
time step continuity errors : sum local = 8.04425e-11, global = 3.75159e-18, cumulative = 8.91183e-18
Pressure gradient source: uncorrected Ubar = 1, pressure gradient = 0.0211781
smoothSolver:  Solving for omega, Initial residual = 6.86264e-06, Final residual = 6.86264e-06, No Iterations 0
smoothSolver:  Solving for k, Initial residual = 1.05719e-05, Final residual = 6.97083e-06, No Iterations 1
ExecutionTime = 4.93639 s  ClockTime = 5 s

Time = 1835s

smoothSolver:  Solving for Ux, Initial residual = 9.54807e-06, Final residual = 9.54807e-06, No Iterations 0
smoothSolver:  Solving for Uy, Initial residual = 0.000103953, Final residual = 7.42623e-06, No Iterations 6
Pressure gradient source: uncorrected Ubar = 1, pressure gradient = 0.0211781
GAMG:  Solving for p, Initial residual = 2.72763e-05, Final residual = 2.53504e-06, No Iterations 15
time step continuity errors : sum local = 7.9064e-11, global = -1.15526e-18, cumulative = 7.75657e-18
Pressure gradient source: uncorrected Ubar = 1, pressure gradient = 0.0211782
smoothSolver:  Solving for omega, Initial residual = 6.86264e-06, Final residual = 6.86264e-06, No Iterations 0
smoothSolver:  Solving for k, Initial residual = 1.05466e-05, Final residual = 6.95413e-06, No Iterations 1
ExecutionTime = 4.93929 s  ClockTime = 5 s

Time = 1836s

smoothSolver:  Solving for Ux, Initial residual = 9.54331e-06, Final residual = 9.54331e-06, No Iterations 0
smoothSolver:  Solving for Uy, Initial residual = 0.000103339, Final residual = 7.37721e-06, No Iterations 6
Pressure gradient source: uncorrected Ubar = 1, pressure gradient = 0.0211782
GAMG:  Solving for p, Initial residual = 2.70764e-05, Final residual = 2.48807e-06, No Iterations 15
time step continuity errors : sum local = 7.76233e-11, global = -2.62426e-18, cumulative = 5.13231e-18
Pressure gradient source: uncorrected Ubar = 1, pressure gradient = 0.0211784
smoothSolver:  Solving for omega, Initial residual = 6.86264e-06, Final residual = 6.86264e-06, No Iterations 0
smoothSolver:  Solving for k, Initial residual = 1.05213e-05, Final residual = 6.93744e-06, No Iterations 1
ExecutionTime = 4.94216 s  ClockTime = 5 s

Time = 1837s

smoothSolver:  Solving for Ux, Initial residual = 9.53852e-06, Final residual = 9.53852e-06, No Iterations 0
smoothSolver:  Solving for Uy, Initial residual = 0.000102725, Final residual = 7.32811e-06, No Iterations 6
Pressure gradient source: uncorrected Ubar = 1, pressure gradient = 0.0211784
GAMG:  Solving for p, Initial residual = 2.68789e-05, Final residual = 2.4391e-06, No Iterations 15
time step continuity errors : sum local = 7.61198e-11, global = -3.2343e-18, cumulative = 1.89801e-18
Pressure gradient source: uncorrected Ubar = 1, pressure gradient = 0.0211785
smoothSolver:  Solving for omega, Initial residual = 6.86264e-06, Final residual = 6.86264e-06, No Iterations 0
smoothSolver:  Solving for k, Initial residual = 1.0496e-05, Final residual = 6.92077e-06, No Iterations 1
ExecutionTime = 4.94511 s  ClockTime = 5 s

Time = 1838s

smoothSolver:  Solving for Ux, Initial residual = 9.53371e-06, Final residual = 9.53371e-06, No Iterations 0
smoothSolver:  Solving for Uy, Initial residual = 0.00010211, Final residual = 7.279e-06, No Iterations 6
Pressure gradient source: uncorrected Ubar = 1, pressure gradient = 0.0211785
GAMG:  Solving for p, Initial residual = 2.66804e-05, Final residual = 2.38806e-06, No Iterations 15
time step continuity errors : sum local = 7.45516e-11, global = 4.04137e-19, cumulative = 2.30215e-18
Pressure gradient source: uncorrected Ubar = 1, pressure gradient = 0.0211787
smoothSolver:  Solving for omega, Initial residual = 6.86264e-06, Final residual = 6.86264e-06, No Iterations 0
smoothSolver:  Solving for k, Initial residual = 1.04707e-05, Final residual = 6.90412e-06, No Iterations 1
ExecutionTime = 4.94799 s  ClockTime = 5 s

Time = 1839s

smoothSolver:  Solving for Ux, Initial residual = 9.52887e-06, Final residual = 9.52887e-06, No Iterations 0
smoothSolver:  Solving for Uy, Initial residual = 0.000101495, Final residual = 7.23097e-06, No Iterations 6
Pressure gradient source: uncorrected Ubar = 1, pressure gradient = 0.0211787
GAMG:  Solving for p, Initial residual = 2.64799e-05, Final residual = 2.33491e-06, No Iterations 15
time step continuity errors : sum local = 7.29175e-11, global = 7.68785e-18, cumulative = 9.98999e-18
Pressure gradient source: uncorrected Ubar = 1, pressure gradient = 0.0211788
smoothSolver:  Solving for omega, Initial residual = 6.86264e-06, Final residual = 6.86264e-06, No Iterations 0
smoothSolver:  Solving for k, Initial residual = 1.04455e-05, Final residual = 6.88748e-06, No Iterations 1
ExecutionTime = 4.95089 s  ClockTime = 5 s

Time = 1840s

smoothSolver:  Solving for Ux, Initial residual = 9.52401e-06, Final residual = 9.52401e-06, No Iterations 0
smoothSolver:  Solving for Uy, Initial residual = 0.000100878, Final residual = 7.18309e-06, No Iterations 6
Pressure gradient source: uncorrected Ubar = 1, pressure gradient = 0.0211788
GAMG:  Solving for p, Initial residual = 2.62778e-05, Final residual = 2.46381e-06, No Iterations 14
time step continuity errors : sum local = 7.59186e-11, global = -3.38714e-18, cumulative = 6.60286e-18
Pressure gradient source: uncorrected Ubar = 1, pressure gradient = 0.0211789
smoothSolver:  Solving for omega, Initial residual = 6.86264e-06, Final residual = 6.86264e-06, No Iterations 0
smoothSolver:  Solving for k, Initial residual = 1.04203e-05, Final residual = 6.87085e-06, No Iterations 1
ExecutionTime = 4.95372 s  ClockTime = 5 s

Time = 1841s

smoothSolver:  Solving for Ux, Initial residual = 9.51912e-06, Final residual = 9.51912e-06, No Iterations 0
smoothSolver:  Solving for Uy, Initial residual = 0.00010041, Final residual = 7.14345e-06, No Iterations 6
Pressure gradient source: uncorrected Ubar = 1, pressure gradient = 0.0211789
GAMG:  Solving for p, Initial residual = 2.61863e-05, Final residual = 2.36379e-06, No Iterations 15
time step continuity errors : sum local = 7.36937e-11, global = -1.77182e-19, cumulative = 6.42567e-18
Pressure gradient source: uncorrected Ubar = 1, pressure gradient = 0.0211791
smoothSolver:  Solving for omega, Initial residual = 6.86264e-06, Final residual = 6.86264e-06, No Iterations 0
smoothSolver:  Solving for k, Initial residual = 1.03951e-05, Final residual = 6.85424e-06, No Iterations 1
ExecutionTime = 4.9566 s  ClockTime = 5 s

Time = 1842s

smoothSolver:  Solving for Ux, Initial residual = 9.5142e-06, Final residual = 9.5142e-06, No Iterations 0
smoothSolver:  Solving for Uy, Initial residual = 9.95243e-05, Final residual = 7.07256e-06, No Iterations 6
Pressure gradient source: uncorrected Ubar = 1, pressure gradient = 0.0211791
GAMG:  Solving for p, Initial residual = 2.59876e-05, Final residual = 2.26786e-06, No Iterations 15
time step continuity errors : sum local = 7.09022e-11, global = -6.39769e-18, cumulative = 2.79857e-20
Pressure gradient source: uncorrected Ubar = 1, pressure gradient = 0.0211792
smoothSolver:  Solving for omega, Initial residual = 6.86264e-06, Final residual = 6.86264e-06, No Iterations 0
smoothSolver:  Solving for k, Initial residual = 1.037e-05, Final residual = 6.83764e-06, No Iterations 1
ExecutionTime = 4.95953 s  ClockTime = 5 s


SIMPLE solution converged in 1842 iterations

End

