/*---------------------------------------------------------------------------*\
  =========                 |
  \\      /  F ield         | OpenFOAM: The Open Source CFD Toolbox
   \\    /   O peration     | Website:  https://openfoam.org
    \\  /    A nd           | Version:  10
     \\/     M anipulation  |
\*---------------------------------------------------------------------------*/
Build  : 10-e450dce21ea5
Exec   : blockMesh
Date   : Jan 16 2023
Time   : 11:42:11
Host   : "w530-R9YK46P"
PID    : 13732
I/O    : uncollated
Case   : /home/jdmezazeron/gitDanielMezaZ/turbulenceVisualized/Data/SimulationFiles/E3_Re184
nProcs : 1
sigFpe : Enabling floating point exception trapping (FOAM_SIGFPE).
fileModificationChecking : Monitoring run-time modified files using timeStampMaster (fileModificationSkew 10)
allowSystemOperations : Allowing user-supplied system call operations

// * * * * * * * * * * * * * * * * * * * * * * * * * * * * * * * * * * * * * //
Create time

Reading "blockMeshDict"

Creating block mesh from
    "system/blockMeshDict"
Creating block edges
No non-planar block faces defined
Creating topology blocks
Creating topology patches

Creating block mesh topology

Check topology

	Basic statistics
		Number of internal faces : 0
		Number of boundary faces : 6
		Number of defined boundary faces : 6
		Number of undefined boundary faces : 0
	Checking patch -> block consistency

Creating block offsets
Creating merge list .

Creating polyMesh from blockMesh
Creating patches
Creating cells
Creating points with scale 1
    Block 0 cell size :
        i : 0.5
        j : 0.00921276 .. 0.036851
        k : 2

Detected cyclic patches; ordering boundary faces

Writing polyMesh
----------------
Mesh Information
----------------
  boundingBox: (-1 0 -1) (1 1 1)
  nPoints: 510
  nCells: 200
  nFaces: 854
  nInternalFaces: 346
----------------
Patches
----------------
  patch 0 (start: 346 size: 50) name: inlet
  patch 1 (start: 396 size: 50) name: outlet
  patch 2 (start: 446 size: 4) name: fixedWalls-bottom
  patch 3 (start: 450 size: 4) name: fixedWalls-top
  patch 4 (start: 454 size: 400) name: frontAndBack

End

/*---------------------------------------------------------------------------*\
  =========                 |
  \\      /  F ield         | OpenFOAM: The Open Source CFD Toolbox
   \\    /   O peration     | Website:  https://openfoam.org
    \\  /    A nd           | Version:  10
     \\/     M anipulation  |
\*---------------------------------------------------------------------------*/
Build  : 10-e450dce21ea5
Exec   : simpleFoam
Date   : Jan 16 2023
Time   : 11:42:11
Host   : "w530-R9YK46P"
PID    : 13733
I/O    : uncollated
Case   : /home/jdmezazeron/gitDanielMezaZ/turbulenceVisualized/Data/SimulationFiles/E3_Re184
nProcs : 1
sigFpe : Enabling floating point exception trapping (FOAM_SIGFPE).
fileModificationChecking : Monitoring run-time modified files using timeStampMaster (fileModificationSkew 10)
allowSystemOperations : Allowing user-supplied system call operations

// * * * * * * * * * * * * * * * * * * * * * * * * * * * * * * * * * * * * * //
Create time

Create mesh for time = 0


SIMPLE: Convergence criteria found
        U: tolerance 0.01
        p: tolerance 0.01
        omega: tolerance 0.0001

Reading field p

Reading field U

Reading/calculating face flux field phi

Selecting viscosity model Newtonian
Selecting turbulence model type RAS
Selecting RAS turbulence model kOmegaSST
Selecting patchDistMethod meshWave
RAS
{
    RASModel        kOmegaSST;
    turbulence      on;
    printCoeffs     on;
    alphaK1         0.85;
    alphaK2         1;
    alphaOmega1     0.5;
    alphaOmega2     0.856;
    gamma1          0.555556;
    gamma2          0.44;
    beta1           0.075;
    beta2           0.0828;
    betaStar        0.09;
    a1              0.31;
    b1              1;
    c1              10;
    F3              false;
}

No MRF models present

--> FOAM Warning : Creating fvModels from "system/fvOptions" rather than constant/fvModels
No fvModels present
--> FOAM Warning : Creating fvConstraints from "system/fvOptions"

Selecting finite volume constraint type meanVelocityForce
    Name: momentumSource
    - selecting all cells
    - selected 200 cell(s) with volume 4
    Initial pressure gradient = 0


Starting time loop

turbulenceFields stressComponents: storing fields:
    R

Time = 1s

smoothSolver:  Solving for Ux, Initial residual = 0, Final residual = 0, No Iterations 0
smoothSolver:  Solving for Uy, Initial residual = 0, Final residual = 0, No Iterations 0
Pressure gradient source: uncorrected Ubar = 0, pressure gradient = 42.2436
GAMG:  Solving for p, Initial residual = 0.99999, Final residual = 0.047644, No Iterations 3
time step continuity errors : sum local = 7.12357e-17, global = -2.78409e-18, cumulative = -2.78409e-18
Pressure gradient source: uncorrected Ubar = 0.869361, pressure gradient = 5.51867
smoothSolver:  Solving for omega, Initial residual = 0.0178302, Final residual = 0.0015281, No Iterations 2
smoothSolver:  Solving for k, Initial residual = 1, Final residual = 0.0311262, No Iterations 1
ExecutionTime = 0.01294 s  ClockTime = 1 s

Time = 2s

smoothSolver:  Solving for Ux, Initial residual = 0.388524, Final residual = 0.0318791, No Iterations 6
smoothSolver:  Solving for Uy, Initial residual = 1, Final residual = 0.0758575, No Iterations 2
Pressure gradient source: uncorrected Ubar = 1.91486, pressure gradient = -37.2479
GAMG:  Solving for p, Initial residual = 1, Final residual = 0.0958045, No Iterations 6
time step continuity errors : sum local = 0.000677112, global = 2.38694e-17, cumulative = 2.10853e-17
Pressure gradient source: uncorrected Ubar = 1.12537, pressure gradient = -0.342193
smoothSolver:  Solving for omega, Initial residual = 0.173195, Final residual = 0.000632633, No Iterations 1
smoothSolver:  Solving for k, Initial residual = 0.113577, Final residual = 0.00611618, No Iterations 3
ExecutionTime = 0.015019 s  ClockTime = 1 s

Time = 3s

smoothSolver:  Solving for Ux, Initial residual = 0.0531899, Final residual = 0.00510874, No Iterations 5
smoothSolver:  Solving for Uy, Initial residual = 0.301622, Final residual = 0.0281062, No Iterations 4
Pressure gradient source: uncorrected Ubar = 0.920942, pressure gradient = 3.40423
GAMG:  Solving for p, Initial residual = 0.200082, Final residual = 0.0196944, No Iterations 5
time step continuity errors : sum local = 0.000279296, global = -1.01284e-18, cumulative = 2.00725e-17
Pressure gradient source: uncorrected Ubar = 0.988577, pressure gradient = 0.199123
smoothSolver:  Solving for omega, Initial residual = 0.0089164, Final residual = 0.000172255, No Iterations 1
smoothSolver:  Solving for k, Initial residual = 0.043673, Final residual = 0.0026242, No Iterations 4
ExecutionTime = 0.016989 s  ClockTime = 1 s

Time = 4s

smoothSolver:  Solving for Ux, Initial residual = 0.0238073, Final residual = 0.00162212, No Iterations 5
smoothSolver:  Solving for Uy, Initial residual = 0.136686, Final residual = 0.00910274, No Iterations 4
Pressure gradient source: uncorrected Ubar = 1.01217, pressure gradient = -0.368533
GAMG:  Solving for p, Initial residual = 0.184234, Final residual = 0.0169045, No Iterations 5
time step continuity errors : sum local = 0.000208289, global = -6.15285e-18, cumulative = 1.39196e-17
Pressure gradient source: uncorrected Ubar = 1.0017, pressure gradient = 0.119841
smoothSolver:  Solving for omega, Initial residual = 0.00847311, Final residual = 0.00013541, No Iterations 1
smoothSolver:  Solving for k, Initial residual = 0.0310643, Final residual = 0.00266438, No Iterations 4
ExecutionTime = 0.019198 s  ClockTime = 1 s

Time = 5s

smoothSolver:  Solving for Ux, Initial residual = 0.0164072, Final residual = 0.0010927, No Iterations 5
smoothSolver:  Solving for Uy, Initial residual = 0.409569, Final residual = 0.0266332, No Iterations 5
Pressure gradient source: uncorrected Ubar = 1.00271, pressure gradient = -0.00637738
GAMG:  Solving for p, Initial residual = 0.202238, Final residual = 0.0126866, No Iterations 8
time step continuity errors : sum local = 0.000112327, global = -1.24053e-18, cumulative = 1.26791e-17
Pressure gradient source: uncorrected Ubar = 1.00035, pressure gradient = 0.103652
smoothSolver:  Solving for omega, Initial residual = 0.00341415, Final residual = 8.52533e-05, No Iterations 1
smoothSolver:  Solving for k, Initial residual = 0.0255465, Final residual = 0.00237567, No Iterations 4
ExecutionTime = 0.021613 s  ClockTime = 1 s

Time = 6s

smoothSolver:  Solving for Ux, Initial residual = 0.0128701, Final residual = 0.000870049, No Iterations 5
smoothSolver:  Solving for Uy, Initial residual = 0.273946, Final residual = 0.016369, No Iterations 4
Pressure gradient source: uncorrected Ubar = 1.00249, pressure gradient = -0.0120438
GAMG:  Solving for p, Initial residual = 0.244902, Final residual = 0.0172451, No Iterations 8
time step continuity errors : sum local = 8.10508e-05, global = 7.87868e-18, cumulative = 2.05578e-17
Pressure gradient source: uncorrected Ubar = 1.00032, pressure gradient = 0.08876
smoothSolver:  Solving for omega, Initial residual = 0.00229347, Final residual = 5.48539e-05, No Iterations 1
smoothSolver:  Solving for k, Initial residual = 0.0229996, Final residual = 0.00134362, No Iterations 5
ExecutionTime = 0.023911 s  ClockTime = 1 s

Time = 7s

smoothSolver:  Solving for Ux, Initial residual = 0.0103674, Final residual = 0.000709244, No Iterations 5
smoothSolver:  Solving for Uy, Initial residual = 0.162735, Final residual = 0.0156181, No Iterations 3
Pressure gradient source: uncorrected Ubar = 1.00181, pressure gradient = 0.00482407
GAMG:  Solving for p, Initial residual = 0.224156, Final residual = 0.0184147, No Iterations 7
time step continuity errors : sum local = 5.5705e-05, global = -2.08751e-18, cumulative = 1.84702e-17
Pressure gradient source: uncorrected Ubar = 1.00023, pressure gradient = 0.0782189
smoothSolver:  Solving for omega, Initial residual = 0.00115814, Final residual = 3.21121e-05, No Iterations 1
smoothSolver:  Solving for k, Initial residual = 0.0206655, Final residual = 0.00134755, No Iterations 5
ExecutionTime = 0.025961 s  ClockTime = 1 s

Time = 8s

smoothSolver:  Solving for Ux, Initial residual = 0.00859185, Final residual = 0.00059281, No Iterations 5
smoothSolver:  Solving for Uy, Initial residual = 0.140647, Final residual = 0.00812199, No Iterations 4
Pressure gradient source: uncorrected Ubar = 1.0014, pressure gradient = 0.013466
GAMG:  Solving for p, Initial residual = 0.149304, Final residual = 0.0129844, No Iterations 6
time step continuity errors : sum local = 4.32611e-05, global = -5.30671e-18, cumulative = 1.31635e-17
Pressure gradient source: uncorrected Ubar = 1.00017, pressure gradient = 0.0702506
smoothSolver:  Solving for omega, Initial residual = 0.000685487, Final residual = 2.09238e-05, No Iterations 1
smoothSolver:  Solving for k, Initial residual = 0.0190081, Final residual = 0.00121112, No Iterations 5
ExecutionTime = 0.027989 s  ClockTime = 1 s

Time = 9s

smoothSolver:  Solving for Ux, Initial residual = 0.00723442, Final residual = 0.000502903, No Iterations 5
smoothSolver:  Solving for Uy, Initial residual = 0.17109, Final residual = 0.0124701, No Iterations 4
Pressure gradient source: uncorrected Ubar = 1.0011, pressure gradient = 0.0196609
GAMG:  Solving for p, Initial residual = 0.129926, Final residual = 0.0118583, No Iterations 5
time step continuity errors : sum local = 3.48511e-05, global = 6.80167e-18, cumulative = 1.99652e-17
Pressure gradient source: uncorrected Ubar = 1.00013, pressure gradient = 0.0641586
smoothSolver:  Solving for omega, Initial residual = 0.000372997, Final residual = 1.29253e-05, No Iterations 1
smoothSolver:  Solving for k, Initial residual = 0.0174483, Final residual = 0.00115854, No Iterations 5
ExecutionTime = 0.029919 s  ClockTime = 1 s

Time = 10s

smoothSolver:  Solving for Ux, Initial residual = 0.00616508, Final residual = 0.000432886, No Iterations 5
smoothSolver:  Solving for Uy, Initial residual = 0.22446, Final residual = 0.0196427, No Iterations 4
Pressure gradient source: uncorrected Ubar = 1.00088, pressure gradient = 0.0234557
GAMG:  Solving for p, Initial residual = 0.109836, Final residual = 0.0109266, No Iterations 3
time step continuity errors : sum local = 2.80837e-05, global = 3.05821e-18, cumulative = 2.30234e-17
Pressure gradient source: uncorrected Ubar = 1.0001, pressure gradient = 0.0593484
smoothSolver:  Solving for omega, Initial residual = 0.000213207, Final residual = 8.92199e-06, No Iterations 1
smoothSolver:  Solving for k, Initial residual = 0.016203, Final residual = 0.00114654, No Iterations 5
ExecutionTime = 0.031891 s  ClockTime = 1 s

Time = 11s

smoothSolver:  Solving for Ux, Initial residual = 0.0053018, Final residual = 0.000375073, No Iterations 5
smoothSolver:  Solving for Uy, Initial residual = 0.284229, Final residual = 0.0261535, No Iterations 4
Pressure gradient source: uncorrected Ubar = 1.00073, pressure gradient = 0.0259195
GAMG:  Solving for p, Initial residual = 0.108106, Final residual = 0.0104953, No Iterations 3
time step continuity errors : sum local = 2.41043e-05, global = -2.9608e-18, cumulative = 2.00626e-17
Pressure gradient source: uncorrected Ubar = 1.00008, pressure gradient = 0.055465
smoothSolver:  Solving for omega, Initial residual = 0.000119797, Final residual = 6.10673e-06, No Iterations 1
smoothSolver:  Solving for k, Initial residual = 0.0150602, Final residual = 0.00104683, No Iterations 5
ExecutionTime = 0.033777 s  ClockTime = 1 s

Time = 12s

smoothSolver:  Solving for Ux, Initial residual = 0.00460265, Final residual = 0.000326692, No Iterations 5
smoothSolver:  Solving for Uy, Initial residual = 0.278913, Final residual = 0.0251281, No Iterations 4
Pressure gradient source: uncorrected Ubar = 1.0006, pressure gradient = 0.027875
GAMG:  Solving for p, Initial residual = 0.111424, Final residual = 0.00846164, No Iterations 5
time step continuity errors : sum local = 1.71295e-05, global = -6.45058e-18, cumulative = 1.3612e-17
Pressure gradient source: uncorrected Ubar = 1.00007, pressure gradient = 0.0523186
smoothSolver:  Solving for omega, Initial residual = 6.86203e-05, Final residual = 4.56178e-06, No Iterations 1
smoothSolver:  Solving for k, Initial residual = 0.0140642, Final residual = 0.00102563, No Iterations 5
ExecutionTime = 0.035921 s  ClockTime = 1 s

Time = 13s

smoothSolver:  Solving for Ux, Initial residual = 0.00402341, Final residual = 0.00028637, No Iterations 5
smoothSolver:  Solving for Uy, Initial residual = 0.280335, Final residual = 0.0273135, No Iterations 4
Pressure gradient source: uncorrected Ubar = 1.00051, pressure gradient = 0.0291431
GAMG:  Solving for p, Initial residual = 0.120839, Final residual = 0.0100221, No Iterations 6
time step continuity errors : sum local = 1.53262e-05, global = 6.32659e-18, cumulative = 1.99386e-17
Pressure gradient source: uncorrected Ubar = 1.00006, pressure gradient = 0.049719
smoothSolver:  Solving for omega, Initial residual = 3.96984e-05, Final residual = 3.43258e-06, No Iterations 1
smoothSolver:  Solving for k, Initial residual = 0.0131987, Final residual = 0.00106469, No Iterations 5
ExecutionTime = 0.038267 s  ClockTime = 1 s

Time = 14s

smoothSolver:  Solving for Ux, Initial residual = 0.0035324, Final residual = 0.000252148, No Iterations 5
smoothSolver:  Solving for Uy, Initial residual = 0.296006, Final residual = 0.0295149, No Iterations 4
Pressure gradient source: uncorrected Ubar = 1.00043, pressure gradient = 0.0299849
GAMG:  Solving for p, Initial residual = 0.126864, Final residual = 0.00974914, No Iterations 7
time step continuity errors : sum local = 1.15963e-05, global = -8.42671e-18, cumulative = 1.15119e-17
Pressure gradient source: uncorrected Ubar = 1.00005, pressure gradient = 0.0475384
smoothSolver:  Solving for omega, Initial residual = 2.34172e-05, Final residual = 2.77156e-06, No Iterations 1
smoothSolver:  Solving for k, Initial residual = 0.0124218, Final residual = 0.000974566, No Iterations 5
ExecutionTime = 0.040558 s  ClockTime = 1 s

Time = 15s

smoothSolver:  Solving for Ux, Initial residual = 0.00311212, Final residual = 0.000223193, No Iterations 5
smoothSolver:  Solving for Uy, Initial residual = 0.272842, Final residual = 0.0269292, No Iterations 4
Pressure gradient source: uncorrected Ubar = 1.00037, pressure gradient = 0.0306734
GAMG:  Solving for p, Initial residual = 0.134153, Final residual = 0.0106218, No Iterations 7
time step continuity errors : sum local = 9.58966e-06, global = -1.47086e-17, cumulative = -3.19673e-18
Pressure gradient source: uncorrected Ubar = 1.00004, pressure gradient = 0.0457043
smoothSolver:  Solving for omega, Initial residual = 1.42294e-05, Final residual = 2.23948e-06, No Iterations 1
smoothSolver:  Solving for k, Initial residual = 0.0117196, Final residual = 0.000915302, No Iterations 5
ExecutionTime = 0.042684 s  ClockTime = 1 s

Time = 16s

smoothSolver:  Solving for Ux, Initial residual = 0.00275322, Final residual = 0.000197777, No Iterations 5
smoothSolver:  Solving for Uy, Initial residual = 0.228261, Final residual = 0.0209143, No Iterations 4
Pressure gradient source: uncorrected Ubar = 1.00032, pressure gradient = 0.0311853
GAMG:  Solving for p, Initial residual = 0.146265, Final residual = 0.011698, No Iterations 7
time step continuity errors : sum local = 8.12611e-06, global = 7.96347e-18, cumulative = 4.76674e-18
Pressure gradient source: uncorrected Ubar = 1.00003, pressure gradient = 0.0441499
smoothSolver:  Solving for omega, Initial residual = 8.94716e-06, Final residual = 8.94716e-06, No Iterations 0
smoothSolver:  Solving for k, Initial residual = 0.0115204, Final residual = 0.000901151, No Iterations 5
ExecutionTime = 0.044742 s  ClockTime = 1 s

Time = 17s

smoothSolver:  Solving for Ux, Initial residual = 0.00244502, Final residual = 0.000175908, No Iterations 5
smoothSolver:  Solving for Uy, Initial residual = 0.174377, Final residual = 0.015532, No Iterations 4
Pressure gradient source: uncorrected Ubar = 1.00028, pressure gradient = 0.0315006
GAMG:  Solving for p, Initial residual = 0.147774, Final residual = 0.0124709, No Iterations 6
time step continuity errors : sum local = 6.99733e-06, global = 2.10971e-18, cumulative = 6.87645e-18
Pressure gradient source: uncorrected Ubar = 1.00003, pressure gradient = 0.0428138
smoothSolver:  Solving for omega, Initial residual = 8.95394e-06, Final residual = 8.95394e-06, No Iterations 0
smoothSolver:  Solving for k, Initial residual = 0.0113946, Final residual = 0.00082928, No Iterations 5
ExecutionTime = 0.046765 s  ClockTime = 1 s

Time = 18s

smoothSolver:  Solving for Ux, Initial residual = 0.00218071, Final residual = 0.000157094, No Iterations 5
smoothSolver:  Solving for Uy, Initial residual = 0.133916, Final residual = 0.0114279, No Iterations 4
Pressure gradient source: uncorrected Ubar = 1.00024, pressure gradient = 0.0318076
GAMG:  Solving for p, Initial residual = 0.137206, Final residual = 0.0114449, No Iterations 6
time step continuity errors : sum local = 5.34312e-06, global = 1.11083e-17, cumulative = 1.79847e-17
Pressure gradient source: uncorrected Ubar = 1.00003, pressure gradient = 0.0416691
smoothSolver:  Solving for omega, Initial residual = 8.95862e-06, Final residual = 8.95862e-06, No Iterations 0
smoothSolver:  Solving for k, Initial residual = 0.0113022, Final residual = 0.000894426, No Iterations 5
ExecutionTime = 0.048796 s  ClockTime = 1 s

Time = 19s

smoothSolver:  Solving for Ux, Initial residual = 0.00195167, Final residual = 0.000140888, No Iterations 5
smoothSolver:  Solving for Uy, Initial residual = 0.117238, Final residual = 0.0100385, No Iterations 4
Pressure gradient source: uncorrected Ubar = 1.00021, pressure gradient = 0.0320163
GAMG:  Solving for p, Initial residual = 0.118671, Final residual = 0.00964937, No Iterations 6
time step continuity errors : sum local = 3.74689e-06, global = 2.68037e-18, cumulative = 2.06651e-17
Pressure gradient source: uncorrected Ubar = 1.00002, pressure gradient = 0.0406795
smoothSolver:  Solving for omega, Initial residual = 8.96216e-06, Final residual = 8.96216e-06, No Iterations 0
smoothSolver:  Solving for k, Initial residual = 0.0112256, Final residual = 0.000909016, No Iterations 5
ExecutionTime = 0.050833 s  ClockTime = 1 s

Time = 20s

smoothSolver:  Solving for Ux, Initial residual = 0.00175007, Final residual = 0.000127115, No Iterations 5
smoothSolver:  Solving for Uy, Initial residual = 0.113633, Final residual = 0.0102564, No Iterations 4
Pressure gradient source: uncorrected Ubar = 1.00019, pressure gradient = 0.0321693
GAMG:  Solving for p, Initial residual = 0.100996, Final residual = 0.00900049, No Iterations 5
time step continuity errors : sum local = 3.14262e-06, global = -5.38448e-19, cumulative = 2.01266e-17
Pressure gradient source: uncorrected Ubar = 1.00002, pressure gradient = 0.0398191
smoothSolver:  Solving for omega, Initial residual = 8.96573e-06, Final residual = 8.96573e-06, No Iterations 0
smoothSolver:  Solving for k, Initial residual = 0.0111538, Final residual = 0.000880887, No Iterations 5
ExecutionTime = 0.052985 s  ClockTime = 1 s

Time = 21s

smoothSolver:  Solving for Ux, Initial residual = 0.00157665, Final residual = 0.000114913, No Iterations 5
smoothSolver:  Solving for Uy, Initial residual = 0.113232, Final residual = 0.0107529, No Iterations 4
Pressure gradient source: uncorrected Ubar = 1.00016, pressure gradient = 0.032296
GAMG:  Solving for p, Initial residual = 0.08984, Final residual = 0.00606946, No Iterations 4
time step continuity errors : sum local = 1.84316e-06, global = -1.69362e-18, cumulative = 1.8433e-17
Pressure gradient source: uncorrected Ubar = 1.00002, pressure gradient = 0.0390694
smoothSolver:  Solving for omega, Initial residual = 8.96804e-06, Final residual = 8.96804e-06, No Iterations 0
smoothSolver:  Solving for k, Initial residual = 0.0111114, Final residual = 0.000949829, No Iterations 5
ExecutionTime = 0.055283 s  ClockTime = 1 s

Time = 22s

smoothSolver:  Solving for Ux, Initial residual = 0.00142292, Final residual = 0.000104617, No Iterations 5
smoothSolver:  Solving for Uy, Initial residual = 0.122167, Final residual = 0.0118432, No Iterations 4
Pressure gradient source: uncorrected Ubar = 1.00015, pressure gradient = 0.0323945
GAMG:  Solving for p, Initial residual = 0.0839984, Final residual = 0.00397251, No Iterations 4
time step continuity errors : sum local = 1.10953e-06, global = -2.51598e-18, cumulative = 1.5917e-17
Pressure gradient source: uncorrected Ubar = 1.00001, pressure gradient = 0.0384137
smoothSolver:  Solving for omega, Initial residual = 8.97031e-06, Final residual = 8.97031e-06, No Iterations 0
smoothSolver:  Solving for k, Initial residual = 0.0110557, Final residual = 0.000861665, No Iterations 5
ExecutionTime = 0.057348 s  ClockTime = 1 s

Time = 23s

smoothSolver:  Solving for Ux, Initial residual = 0.00129177, Final residual = 9.54269e-05, No Iterations 5
smoothSolver:  Solving for Uy, Initial residual = 0.128989, Final residual = 0.012795, No Iterations 4
Pressure gradient source: uncorrected Ubar = 1.00013, pressure gradient = 0.0324729
GAMG:  Solving for p, Initial residual = 0.0758037, Final residual = 0.00252699, No Iterations 4
time step continuity errors : sum local = 6.67937e-07, global = 1.49685e-17, cumulative = 3.08855e-17
Pressure gradient source: uncorrected Ubar = 1.00001, pressure gradient = 0.0378385
smoothSolver:  Solving for omega, Initial residual = 8.97206e-06, Final residual = 8.97206e-06, No Iterations 0
smoothSolver:  Solving for k, Initial residual = 0.0110035, Final residual = 0.000849931, No Iterations 5
ExecutionTime = 0.059314 s  ClockTime = 1 s

Time = 24s

smoothSolver:  Solving for Ux, Initial residual = 0.00117695, Final residual = 8.75269e-05, No Iterations 5
smoothSolver:  Solving for Uy, Initial residual = 0.141074, Final residual = 0.0133945, No Iterations 4
Pressure gradient source: uncorrected Ubar = 1.00012, pressure gradient = 0.0325308
GAMG:  Solving for p, Initial residual = 0.0684667, Final residual = 0.00682655, No Iterations 3
time step continuity errors : sum local = 1.56309e-06, global = 4.09863e-18, cumulative = 3.49842e-17
Pressure gradient source: uncorrected Ubar = 1.00001, pressure gradient = 0.0373319
smoothSolver:  Solving for omega, Initial residual = 8.97402e-06, Final residual = 8.97402e-06, No Iterations 0
smoothSolver:  Solving for k, Initial residual = 0.0109672, Final residual = 0.000877417, No Iterations 5
ExecutionTime = 0.061235 s  ClockTime = 1 s

Time = 25s

smoothSolver:  Solving for Ux, Initial residual = 0.00107797, Final residual = 8.03198e-05, No Iterations 5
smoothSolver:  Solving for Uy, Initial residual = 0.146016, Final residual = 0.0135259, No Iterations 4
Pressure gradient source: uncorrected Ubar = 1.0001, pressure gradient = 0.0325729
GAMG:  Solving for p, Initial residual = 0.0616699, Final residual = 0.00447032, No Iterations 4
time step continuity errors : sum local = 9.54284e-07, global = -8.26928e-18, cumulative = 2.67149e-17
Pressure gradient source: uncorrected Ubar = 1.00001, pressure gradient = 0.0368841
smoothSolver:  Solving for omega, Initial residual = 8.97522e-06, Final residual = 8.97522e-06, No Iterations 0
smoothSolver:  Solving for k, Initial residual = 0.0109175, Final residual = 0.000809914, No Iterations 5
ExecutionTime = 0.063151 s  ClockTime = 1 s

Time = 26s

smoothSolver:  Solving for Ux, Initial residual = 0.000990615, Final residual = 7.40461e-05, No Iterations 5
smoothSolver:  Solving for Uy, Initial residual = 0.145302, Final residual = 0.0134447, No Iterations 4
Pressure gradient source: uncorrected Ubar = 1.00009, pressure gradient = 0.0326083
GAMG:  Solving for p, Initial residual = 0.0601481, Final residual = 0.00353368, No Iterations 4
time step continuity errors : sum local = 6.75484e-07, global = -6.36843e-18, cumulative = 2.03464e-17
Pressure gradient source: uncorrected Ubar = 1.00001, pressure gradient = 0.0364875
smoothSolver:  Solving for omega, Initial residual = 8.97671e-06, Final residual = 8.97671e-06, No Iterations 0
smoothSolver:  Solving for k, Initial residual = 0.0108904, Final residual = 0.000871152, No Iterations 5
ExecutionTime = 0.065062 s  ClockTime = 1 s

Time = 27s

smoothSolver:  Solving for Ux, Initial residual = 0.000912706, Final residual = 6.82332e-05, No Iterations 5
smoothSolver:  Solving for Uy, Initial residual = 0.134224, Final residual = 0.012426, No Iterations 4
Pressure gradient source: uncorrected Ubar = 1.00008, pressure gradient = 0.032633
GAMG:  Solving for p, Initial residual = 0.057967, Final residual = 0.00492327, No Iterations 3
time step continuity errors : sum local = 8.42809e-07, global = 9.26898e-18, cumulative = 2.96154e-17
Pressure gradient source: uncorrected Ubar = 1.00001, pressure gradient = 0.036135
smoothSolver:  Solving for omega, Initial residual = 8.97825e-06, Final residual = 8.97825e-06, No Iterations 0
smoothSolver:  Solving for k, Initial residual = 0.0108594, Final residual = 0.000849001, No Iterations 5
ExecutionTime = 0.066932 s  ClockTime = 1 s

Time = 28s

smoothSolver:  Solving for Ux, Initial residual = 0.000841858, Final residual = 6.31294e-05, No Iterations 5
smoothSolver:  Solving for Uy, Initial residual = 0.121674, Final residual = 0.0113039, No Iterations 4
Pressure gradient source: uncorrected Ubar = 1.00008, pressure gradient = 0.0326533
GAMG:  Solving for p, Initial residual = 0.0548285, Final residual = 0.00450291, No Iterations 3
time step continuity errors : sum local = 6.89249e-07, global = -4.27337e-18, cumulative = 2.53421e-17
Pressure gradient source: uncorrected Ubar = 1.00001, pressure gradient = 0.0358213
smoothSolver:  Solving for omega, Initial residual = 8.97923e-06, Final residual = 8.97923e-06, No Iterations 0
smoothSolver:  Solving for k, Initial residual = 0.010835, Final residual = 0.000868711, No Iterations 5
ExecutionTime = 0.069037 s  ClockTime = 1 s

Time = 29s

smoothSolver:  Solving for Ux, Initial residual = 0.000778175, Final residual = 5.83664e-05, No Iterations 5
smoothSolver:  Solving for Uy, Initial residual = 0.109476, Final residual = 0.010603, No Iterations 4
Pressure gradient source: uncorrected Ubar = 1.00007, pressure gradient = 0.0326686
GAMG:  Solving for p, Initial residual = 0.054195, Final residual = 0.00497267, No Iterations 3
time step continuity errors : sum local = 6.86753e-07, global = 1.55206e-18, cumulative = 2.68941e-17
Pressure gradient source: uncorrected Ubar = 1.00001, pressure gradient = 0.0355415
smoothSolver:  Solving for omega, Initial residual = 8.98014e-06, Final residual = 8.98014e-06, No Iterations 0
smoothSolver:  Solving for k, Initial residual = 0.0108201, Final residual = 0.000910309, No Iterations 5
ExecutionTime = 0.071302 s  ClockTime = 1 s

Time = 30s

smoothSolver:  Solving for Ux, Initial residual = 0.000720514, Final residual = 5.41521e-05, No Iterations 5
smoothSolver:  Solving for Uy, Initial residual = 0.0989731, Final residual = 0.00989658, No Iterations 4
Pressure gradient source: uncorrected Ubar = 1.00006, pressure gradient = 0.0326801
GAMG:  Solving for p, Initial residual = 0.0542171, Final residual = 0.00483758, No Iterations 4
time step continuity errors : sum local = 5.74531e-07, global = 7.37488e-19, cumulative = 2.76316e-17
Pressure gradient source: uncorrected Ubar = 1.00001, pressure gradient = 0.0352912
smoothSolver:  Solving for omega, Initial residual = 8.98073e-06, Final residual = 8.98073e-06, No Iterations 0
smoothSolver:  Solving for k, Initial residual = 0.0108017, Final residual = 0.000875431, No Iterations 5
ExecutionTime = 0.073308 s  ClockTime = 1 s

Time = 31s

smoothSolver:  Solving for Ux, Initial residual = 0.000669475, Final residual = 5.0277e-05, No Iterations 5
smoothSolver:  Solving for Uy, Initial residual = 0.0906626, Final residual = 0.0055112, No Iterations 5
Pressure gradient source: uncorrected Ubar = 1.00006, pressure gradient = 0.0326888
GAMG:  Solving for p, Initial residual = 0.056071, Final residual = 0.00451149, No Iterations 4
time step continuity errors : sum local = 4.76551e-07, global = -7.87708e-18, cumulative = 1.97545e-17
Pressure gradient source: uncorrected Ubar = 1, pressure gradient = 0.035067
smoothSolver:  Solving for omega, Initial residual = 8.98135e-06, Final residual = 8.98135e-06, No Iterations 0
smoothSolver:  Solving for k, Initial residual = 0.0107883, Final residual = 0.000926247, No Iterations 5
ExecutionTime = 0.075368 s  ClockTime = 1 s

Time = 32s

smoothSolver:  Solving for Ux, Initial residual = 0.000622313, Final residual = 4.68508e-05, No Iterations 5
smoothSolver:  Solving for Uy, Initial residual = 0.0744917, Final residual = 0.00453392, No Iterations 5
Pressure gradient source: uncorrected Ubar = 1.00005, pressure gradient = 0.0326941
GAMG:  Solving for p, Initial residual = 0.0545365, Final residual = 0.00477264, No Iterations 4
time step continuity errors : sum local = 4.45794e-07, global = -3.93369e-18, cumulative = 1.58208e-17
Pressure gradient source: uncorrected Ubar = 1, pressure gradient = 0.0348656
smoothSolver:  Solving for omega, Initial residual = 8.98199e-06, Final residual = 8.98199e-06, No Iterations 0
smoothSolver:  Solving for k, Initial residual = 0.0107611, Final residual = 0.000844786, No Iterations 5
ExecutionTime = 0.077322 s  ClockTime = 1 s

Time = 33s

smoothSolver:  Solving for Ux, Initial residual = 0.000580119, Final residual = 4.37486e-05, No Iterations 5
smoothSolver:  Solving for Uy, Initial residual = 0.0650669, Final residual = 0.00404181, No Iterations 5
Pressure gradient source: uncorrected Ubar = 1.00005, pressure gradient = 0.0326986
GAMG:  Solving for p, Initial residual = 0.052802, Final residual = 0.0050052, No Iterations 3
time step continuity errors : sum local = 4.32304e-07, global = 2.506e-18, cumulative = 1.83268e-17
Pressure gradient source: uncorrected Ubar = 1, pressure gradient = 0.0346845
smoothSolver:  Solving for omega, Initial residual = 8.98279e-06, Final residual = 8.98279e-06, No Iterations 0
smoothSolver:  Solving for k, Initial residual = 0.0107357, Final residual = 0.000825868, No Iterations 5
ExecutionTime = 0.079262 s  ClockTime = 1 s

Time = 34s

smoothSolver:  Solving for Ux, Initial residual = 0.000541042, Final residual = 4.0897e-05, No Iterations 5
smoothSolver:  Solving for Uy, Initial residual = 0.0639889, Final residual = 0.00411363, No Iterations 5
Pressure gradient source: uncorrected Ubar = 1.00004, pressure gradient = 0.0327013
GAMG:  Solving for p, Initial residual = 0.0507974, Final residual = 0.00444514, No Iterations 4
time step continuity errors : sum local = 3.27982e-07, global = -4.91967e-18, cumulative = 1.34072e-17
Pressure gradient source: uncorrected Ubar = 1, pressure gradient = 0.0345213
smoothSolver:  Solving for omega, Initial residual = 8.98313e-06, Final residual = 8.98313e-06, No Iterations 0
smoothSolver:  Solving for k, Initial residual = 0.0107344, Final residual = 0.000913469, No Iterations 5
ExecutionTime = 0.081256 s  ClockTime = 1 s

Time = 35s

smoothSolver:  Solving for Ux, Initial residual = 0.000505636, Final residual = 3.83624e-05, No Iterations 5
smoothSolver:  Solving for Uy, Initial residual = 0.0630808, Final residual = 0.00395361, No Iterations 5
Pressure gradient source: uncorrected Ubar = 1.00004, pressure gradient = 0.0327025
GAMG:  Solving for p, Initial residual = 0.0500826, Final residual = 0.00343391, No Iterations 3
time step continuity errors : sum local = 2.40752e-07, global = -6.82624e-18, cumulative = 6.58092e-18
Pressure gradient source: uncorrected Ubar = 1, pressure gradient = 0.0343739
smoothSolver:  Solving for omega, Initial residual = 8.9837e-06, Final residual = 8.9837e-06, No Iterations 0
smoothSolver:  Solving for k, Initial residual = 0.0107188, Final residual = 0.000906598, No Iterations 5
ExecutionTime = 0.083194 s  ClockTime = 1 s

Time = 36s

smoothSolver:  Solving for Ux, Initial residual = 0.000473225, Final residual = 3.60143e-05, No Iterations 5
smoothSolver:  Solving for Uy, Initial residual = 0.0623633, Final residual = 0.00408744, No Iterations 5
Pressure gradient source: uncorrected Ubar = 1.00004, pressure gradient = 0.0327028
GAMG:  Solving for p, Initial residual = 0.0483044, Final residual = 0.00300317, No Iterations 3
time step continuity errors : sum local = 1.91325e-07, global = 3.05548e-18, cumulative = 9.63641e-18
Pressure gradient source: uncorrected Ubar = 1, pressure gradient = 0.0342406
smoothSolver:  Solving for omega, Initial residual = 8.9841e-06, Final residual = 8.9841e-06, No Iterations 0
smoothSolver:  Solving for k, Initial residual = 0.0107052, Final residual = 0.00088029, No Iterations 5
ExecutionTime = 0.085258 s  ClockTime = 1 s

Time = 37s

smoothSolver:  Solving for Ux, Initial residual = 0.000443492, Final residual = 3.38564e-05, No Iterations 5
smoothSolver:  Solving for Uy, Initial residual = 0.0612969, Final residual = 0.00407841, No Iterations 5
Pressure gradient source: uncorrected Ubar = 1.00003, pressure gradient = 0.0327026
GAMG:  Solving for p, Initial residual = 0.0465998, Final residual = 0.00221187, No Iterations 3
time step continuity errors : sum local = 1.30326e-07, global = -6.64314e-18, cumulative = 2.99326e-18
Pressure gradient source: uncorrected Ubar = 1, pressure gradient = 0.0341198
smoothSolver:  Solving for omega, Initial residual = 8.98445e-06, Final residual = 8.98445e-06, No Iterations 0
smoothSolver:  Solving for k, Initial residual = 0.0106926, Final residual = 0.000861466, No Iterations 5
ExecutionTime = 0.087366 s  ClockTime = 1 s

Time = 38s

smoothSolver:  Solving for Ux, Initial residual = 0.000417211, Final residual = 3.19294e-05, No Iterations 5
smoothSolver:  Solving for Uy, Initial residual = 0.0593522, Final residual = 0.00394305, No Iterations 5
Pressure gradient source: uncorrected Ubar = 1.00003, pressure gradient = 0.0327018
GAMG:  Solving for p, Initial residual = 0.0448318, Final residual = 0.00249274, No Iterations 3
time step continuity errors : sum local = 1.25965e-07, global = 7.25904e-18, cumulative = 1.02523e-17
Pressure gradient source: uncorrected Ubar = 1, pressure gradient = 0.0340101
smoothSolver:  Solving for omega, Initial residual = 8.98471e-06, Final residual = 8.98471e-06, No Iterations 0
smoothSolver:  Solving for k, Initial residual = 0.0106745, Final residual = 0.000876688, No Iterations 5
ExecutionTime = 0.089499 s  ClockTime = 1 s

Time = 39s

smoothSolver:  Solving for Ux, Initial residual = 0.0003929, Final residual = 3.01919e-05, No Iterations 5
smoothSolver:  Solving for Uy, Initial residual = 0.0576235, Final residual = 0.00377049, No Iterations 5
Pressure gradient source: uncorrected Ubar = 1.00003, pressure gradient = 0.0327005
GAMG:  Solving for p, Initial residual = 0.0431268, Final residual = 0.00293803, No Iterations 3
time step continuity errors : sum local = 1.43877e-07, global = -6.24232e-19, cumulative = 9.62808e-18
Pressure gradient source: uncorrected Ubar = 1, pressure gradient = 0.0339104
smoothSolver:  Solving for omega, Initial residual = 8.98488e-06, Final residual = 8.98488e-06, No Iterations 0
smoothSolver:  Solving for k, Initial residual = 0.0106601, Final residual = 0.000872568, No Iterations 5
ExecutionTime = 0.091545 s  ClockTime = 1 s

Time = 40s

smoothSolver:  Solving for Ux, Initial residual = 0.000370467, Final residual = 2.86124e-05, No Iterations 5
smoothSolver:  Solving for Uy, Initial residual = 0.055542, Final residual = 0.00363165, No Iterations 5
Pressure gradient source: uncorrected Ubar = 1.00003, pressure gradient = 0.0326989
GAMG:  Solving for p, Initial residual = 0.0419926, Final residual = 0.00268253, No Iterations 4
time step continuity errors : sum local = 1.22577e-07, global = 7.43746e-19, cumulative = 1.03718e-17
Pressure gradient source: uncorrected Ubar = 1, pressure gradient = 0.0338196
smoothSolver:  Solving for omega, Initial residual = 8.98515e-06, Final residual = 8.98515e-06, No Iterations 0
smoothSolver:  Solving for k, Initial residual = 0.0106577, Final residual = 0.000894439, No Iterations 5
ExecutionTime = 0.093467 s  ClockTime = 1 s

Time = 41s

smoothSolver:  Solving for Ux, Initial residual = 0.00035014, Final residual = 2.72055e-05, No Iterations 5
smoothSolver:  Solving for Uy, Initial residual = 0.0557223, Final residual = 0.00381054, No Iterations 5
Pressure gradient source: uncorrected Ubar = 1.00002, pressure gradient = 0.032697
GAMG:  Solving for p, Initial residual = 0.0409281, Final residual = 0.00289342, No Iterations 4
time step continuity errors : sum local = 1.2158e-07, global = 5.99501e-18, cumulative = 1.63668e-17
Pressure gradient source: uncorrected Ubar = 1, pressure gradient = 0.0337367
smoothSolver:  Solving for omega, Initial residual = 8.9854e-06, Final residual = 8.9854e-06, No Iterations 0
smoothSolver:  Solving for k, Initial residual = 0.0106322, Final residual = 0.000796505, No Iterations 5
ExecutionTime = 0.095379 s  ClockTime = 1 s

Time = 42s

smoothSolver:  Solving for Ux, Initial residual = 0.000331449, Final residual = 2.59402e-05, No Iterations 5
smoothSolver:  Solving for Uy, Initial residual = 0.0548187, Final residual = 0.00379906, No Iterations 5
Pressure gradient source: uncorrected Ubar = 1.00002, pressure gradient = 0.032695
GAMG:  Solving for p, Initial residual = 0.0400581, Final residual = 0.0029183, No Iterations 4
time step continuity errors : sum local = 1.12567e-07, global = -1.37125e-17, cumulative = 2.6543e-18
Pressure gradient source: uncorrected Ubar = 1, pressure gradient = 0.033661
smoothSolver:  Solving for omega, Initial residual = 8.98562e-06, Final residual = 8.98562e-06, No Iterations 0
smoothSolver:  Solving for k, Initial residual = 0.0106157, Final residual = 0.000844468, No Iterations 5
ExecutionTime = 0.097311 s  ClockTime = 1 s

Time = 43s

smoothSolver:  Solving for Ux, Initial residual = 0.000314269, Final residual = 2.47918e-05, No Iterations 5
smoothSolver:  Solving for Uy, Initial residual = 0.0531799, Final residual = 0.00372516, No Iterations 5
Pressure gradient source: uncorrected Ubar = 1.00002, pressure gradient = 0.0326928
GAMG:  Solving for p, Initial residual = 0.0391849, Final residual = 0.00300526, No Iterations 4
time step continuity errors : sum local = 1.06746e-07, global = 2.78879e-18, cumulative = 5.44309e-18
Pressure gradient source: uncorrected Ubar = 1, pressure gradient = 0.0335918
smoothSolver:  Solving for omega, Initial residual = 8.98581e-06, Final residual = 8.98581e-06, No Iterations 0
smoothSolver:  Solving for k, Initial residual = 0.0106073, Final residual = 0.00085918, No Iterations 5
ExecutionTime = 0.099267 s  ClockTime = 1 s

Time = 44s

smoothSolver:  Solving for Ux, Initial residual = 0.00029854, Final residual = 2.37574e-05, No Iterations 5
smoothSolver:  Solving for Uy, Initial residual = 0.0510861, Final residual = 0.00357765, No Iterations 5
Pressure gradient source: uncorrected Ubar = 1.00002, pressure gradient = 0.0326904
GAMG:  Solving for p, Initial residual = 0.038383, Final residual = 0.0029667, No Iterations 4
time step continuity errors : sum local = 9.77071e-08, global = -1.9724e-18, cumulative = 3.47068e-18
Pressure gradient source: uncorrected Ubar = 1, pressure gradient = 0.0335283
smoothSolver:  Solving for omega, Initial residual = 8.98598e-06, Final residual = 8.98598e-06, No Iterations 0
smoothSolver:  Solving for k, Initial residual = 0.0105868, Final residual = 0.000827656, No Iterations 5
ExecutionTime = 0.101333 s  ClockTime = 1 s

Time = 45s

smoothSolver:  Solving for Ux, Initial residual = 0.000284549, Final residual = 2.2833e-05, No Iterations 5
smoothSolver:  Solving for Uy, Initial residual = 0.048807, Final residual = 0.00338928, No Iterations 5
Pressure gradient source: uncorrected Ubar = 1.00002, pressure gradient = 0.032688
GAMG:  Solving for p, Initial residual = 0.0377113, Final residual = 0.00283033, No Iterations 4
time step continuity errors : sum local = 8.71792e-08, global = -1.38288e-17, cumulative = -1.03581e-17
Pressure gradient source: uncorrected Ubar = 1, pressure gradient = 0.03347
smoothSolver:  Solving for omega, Initial residual = 8.98611e-06, Final residual = 8.98611e-06, No Iterations 0
smoothSolver:  Solving for k, Initial residual = 0.0105873, Final residual = 0.000893756, No Iterations 5
ExecutionTime = 0.103286 s  ClockTime = 1 s

Time = 46s

smoothSolver:  Solving for Ux, Initial residual = 0.000271875, Final residual = 2.20136e-05, No Iterations 5
smoothSolver:  Solving for Uy, Initial residual = 0.0464582, Final residual = 0.00318541, No Iterations 5
Pressure gradient source: uncorrected Ubar = 1.00002, pressure gradient = 0.0326856
GAMG:  Solving for p, Initial residual = 0.0369904, Final residual = 0.00270442, No Iterations 4
time step continuity errors : sum local = 7.83175e-08, global = -5.60136e-18, cumulative = -1.59595e-17
Pressure gradient source: uncorrected Ubar = 1, pressure gradient = 0.0334163
smoothSolver:  Solving for omega, Initial residual = 8.98623e-06, Final residual = 8.98623e-06, No Iterations 0
smoothSolver:  Solving for k, Initial residual = 0.0105755, Final residual = 0.000874483, No Iterations 5
ExecutionTime = 0.105608 s  ClockTime = 1 s

Time = 47s

smoothSolver:  Solving for Ux, Initial residual = 0.00026034, Final residual = 2.13152e-05, No Iterations 5
smoothSolver:  Solving for Uy, Initial residual = 0.0443234, Final residual = 0.00299877, No Iterations 5
Pressure gradient source: uncorrected Ubar = 1.00002, pressure gradient = 0.0326832
GAMG:  Solving for p, Initial residual = 0.0362196, Final residual = 0.00282096, No Iterations 4
time step continuity errors : sum local = 7.65887e-08, global = 1.4556e-18, cumulative = -1.45039e-17
Pressure gradient source: uncorrected Ubar = 1, pressure gradient = 0.033367
smoothSolver:  Solving for omega, Initial residual = 8.98633e-06, Final residual = 8.98633e-06, No Iterations 0
smoothSolver:  Solving for k, Initial residual = 0.0105576, Final residual = 0.000865461, No Iterations 5
ExecutionTime = 0.107703 s  ClockTime = 1 s

Time = 48s

smoothSolver:  Solving for Ux, Initial residual = 0.000249912, Final residual = 2.07176e-05, No Iterations 5
smoothSolver:  Solving for Uy, Initial residual = 0.0426627, Final residual = 0.00284727, No Iterations 5
Pressure gradient source: uncorrected Ubar = 1.00002, pressure gradient = 0.0326808
GAMG:  Solving for p, Initial residual = 0.0353302, Final residual = 0.0030849, No Iterations 4
time step continuity errors : sum local = 7.8349e-08, global = -1.98062e-18, cumulative = -1.64845e-17
Pressure gradient source: uncorrected Ubar = 1, pressure gradient = 0.0333215
smoothSolver:  Solving for omega, Initial residual = 8.98642e-06, Final residual = 8.98642e-06, No Iterations 0
smoothSolver:  Solving for k, Initial residual = 0.0105381, Final residual = 0.000856965, No Iterations 5
ExecutionTime = 0.109699 s  ClockTime = 1 s

Time = 49s

smoothSolver:  Solving for Ux, Initial residual = 0.000240528, Final residual = 2.02213e-05, No Iterations 5
smoothSolver:  Solving for Uy, Initial residual = 0.0413763, Final residual = 0.00271551, No Iterations 5
Pressure gradient source: uncorrected Ubar = 1.00001, pressure gradient = 0.0326784
GAMG:  Solving for p, Initial residual = 0.0343016, Final residual = 0.0024013, No Iterations 4
time step continuity errors : sum local = 5.90145e-08, global = 2.57773e-18, cumulative = -1.39068e-17
Pressure gradient source: uncorrected Ubar = 1, pressure gradient = 0.0332795
smoothSolver:  Solving for omega, Initial residual = 8.98648e-06, Final residual = 8.98648e-06, No Iterations 0
smoothSolver:  Solving for k, Initial residual = 0.0105386, Final residual = 0.000861003, No Iterations 5
ExecutionTime = 0.111748 s  ClockTime = 1 s

Time = 50s

smoothSolver:  Solving for Ux, Initial residual = 0.000232091, Final residual = 1.98141e-05, No Iterations 5
smoothSolver:  Solving for Uy, Initial residual = 0.0403703, Final residual = 0.00259218, No Iterations 5
Pressure gradient source: uncorrected Ubar = 1.00001, pressure gradient = 0.0326759
GAMG:  Solving for p, Initial residual = 0.0333352, Final residual = 0.00267942, No Iterations 4
time step continuity errors : sum local = 6.1075e-08, global = 9.80283e-19, cumulative = -1.29265e-17
Pressure gradient source: uncorrected Ubar = 1, pressure gradient = 0.0332406
smoothSolver:  Solving for omega, Initial residual = 8.98656e-06, Final residual = 8.98656e-06, No Iterations 0
smoothSolver:  Solving for k, Initial residual = 0.0105292, Final residual = 0.000872587, No Iterations 5
ExecutionTime = 0.114382 s  ClockTime = 1 s

Time = 51s

smoothSolver:  Solving for Ux, Initial residual = 0.000224652, Final residual = 1.94942e-05, No Iterations 5
smoothSolver:  Solving for Uy, Initial residual = 0.0385092, Final residual = 0.00245262, No Iterations 5
Pressure gradient source: uncorrected Ubar = 1.00001, pressure gradient = 0.0326736
GAMG:  Solving for p, Initial residual = 0.0323098, Final residual = 0.00272651, No Iterations 4
time step continuity errors : sum local = 5.76503e-08, global = 5.95575e-18, cumulative = -6.97073e-18
Pressure gradient source: uncorrected Ubar = 1, pressure gradient = 0.0332047
smoothSolver:  Solving for omega, Initial residual = 8.98662e-06, Final residual = 8.98662e-06, No Iterations 0
smoothSolver:  Solving for k, Initial residual = 0.0105072, Final residual = 0.000860321, No Iterations 5
ExecutionTime = 0.116459 s  ClockTime = 1 s

Time = 52s

smoothSolver:  Solving for Ux, Initial residual = 0.000218188, Final residual = 1.92031e-05, No Iterations 5
smoothSolver:  Solving for Uy, Initial residual = 0.03661, Final residual = 0.00231308, No Iterations 5
Pressure gradient source: uncorrected Ubar = 1.00001, pressure gradient = 0.0326713
GAMG:  Solving for p, Initial residual = 0.0310021, Final residual = 0.00240339, No Iterations 3
time step continuity errors : sum local = 4.86182e-08, global = 3.14336e-18, cumulative = -3.82736e-18
Pressure gradient source: uncorrected Ubar = 1, pressure gradient = 0.0331713
smoothSolver:  Solving for omega, Initial residual = 8.98667e-06, Final residual = 8.98667e-06, No Iterations 0
smoothSolver:  Solving for k, Initial residual = 0.0104908, Final residual = 0.000831317, No Iterations 5
ExecutionTime = 0.118624 s  ClockTime = 1 s

Time = 53s

smoothSolver:  Solving for Ux, Initial residual = 0.000212569, Final residual = 1.89019e-05, No Iterations 5
smoothSolver:  Solving for Uy, Initial residual = 0.0355739, Final residual = 0.00218511, No Iterations 5
Pressure gradient source: uncorrected Ubar = 1.00001, pressure gradient = 0.0326691
GAMG:  Solving for p, Initial residual = 0.0297469, Final residual = 0.00270598, No Iterations 3
time step continuity errors : sum local = 4.99379e-08, global = 4.67963e-18, cumulative = 8.52266e-19
Pressure gradient source: uncorrected Ubar = 1, pressure gradient = 0.0331404
smoothSolver:  Solving for omega, Initial residual = 8.98672e-06, Final residual = 8.98672e-06, No Iterations 0
smoothSolver:  Solving for k, Initial residual = 0.010483, Final residual = 0.000836143, No Iterations 5
ExecutionTime = 0.120814 s  ClockTime = 1 s

Time = 54s

smoothSolver:  Solving for Ux, Initial residual = 0.000207172, Final residual = 1.85923e-05, No Iterations 5
smoothSolver:  Solving for Uy, Initial residual = 0.0335503, Final residual = 0.00202518, No Iterations 5
Pressure gradient source: uncorrected Ubar = 1.00001, pressure gradient = 0.0326669
GAMG:  Solving for p, Initial residual = 0.0286275, Final residual = 0.00266011, No Iterations 3
time step continuity errors : sum local = 4.65361e-08, global = -1.32904e-17, cumulative = -1.24381e-17
Pressure gradient source: uncorrected Ubar = 1, pressure gradient = 0.0331116
smoothSolver:  Solving for omega, Initial residual = 8.98675e-06, Final residual = 8.98675e-06, No Iterations 0
smoothSolver:  Solving for k, Initial residual = 0.0104781, Final residual = 0.000887541, No Iterations 5
ExecutionTime = 0.122956 s  ClockTime = 1 s

Time = 55s

smoothSolver:  Solving for Ux, Initial residual = 0.000201988, Final residual = 1.82774e-05, No Iterations 5
smoothSolver:  Solving for Uy, Initial residual = 0.0313017, Final residual = 0.00187085, No Iterations 5
Pressure gradient source: uncorrected Ubar = 1.00001, pressure gradient = 0.0326648
GAMG:  Solving for p, Initial residual = 0.0274407, Final residual = 0.00238924, No Iterations 3
time step continuity errors : sum local = 3.99353e-08, global = 4.52565e-18, cumulative = -7.91247e-18
Pressure gradient source: uncorrected Ubar = 1, pressure gradient = 0.0330848
smoothSolver:  Solving for omega, Initial residual = 8.98677e-06, Final residual = 8.98677e-06, No Iterations 0
smoothSolver:  Solving for k, Initial residual = 0.0104684, Final residual = 0.00086137, No Iterations 5
ExecutionTime = 0.125053 s  ClockTime = 1 s

Time = 56s

smoothSolver:  Solving for Ux, Initial residual = 0.000196922, Final residual = 1.79704e-05, No Iterations 5
smoothSolver:  Solving for Uy, Initial residual = 0.0296151, Final residual = 0.00293477, No Iterations 4
Pressure gradient source: uncorrected Ubar = 1.00001, pressure gradient = 0.0326627
GAMG:  Solving for p, Initial residual = 0.0262959, Final residual = 0.00214447, No Iterations 3
time step continuity errors : sum local = 3.44454e-08, global = -8.75537e-18, cumulative = -1.66678e-17
Pressure gradient source: uncorrected Ubar = 1, pressure gradient = 0.0330599
smoothSolver:  Solving for omega, Initial residual = 8.98678e-06, Final residual = 8.98678e-06, No Iterations 0
smoothSolver:  Solving for k, Initial residual = 0.0104501, Final residual = 0.00085033, No Iterations 5
ExecutionTime = 0.127026 s  ClockTime = 1 s

Time = 57s

smoothSolver:  Solving for Ux, Initial residual = 0.000191972, Final residual = 1.76581e-05, No Iterations 5
smoothSolver:  Solving for Uy, Initial residual = 0.0286729, Final residual = 0.00283983, No Iterations 4
Pressure gradient source: uncorrected Ubar = 1.00001, pressure gradient = 0.0326607
GAMG:  Solving for p, Initial residual = 0.0253438, Final residual = 0.00201613, No Iterations 3
time step continuity errors : sum local = 3.10127e-08, global = 3.68908e-18, cumulative = -1.29788e-17
Pressure gradient source: uncorrected Ubar = 1, pressure gradient = 0.0330366
smoothSolver:  Solving for omega, Initial residual = 8.98679e-06, Final residual = 8.98679e-06, No Iterations 0
smoothSolver:  Solving for k, Initial residual = 0.0104466, Final residual = 0.000865828, No Iterations 5
ExecutionTime = 0.129038 s  ClockTime = 1 s

Time = 58s

smoothSolver:  Solving for Ux, Initial residual = 0.000187135, Final residual = 1.73467e-05, No Iterations 5
smoothSolver:  Solving for Uy, Initial residual = 0.0276295, Final residual = 0.00271645, No Iterations 4
Pressure gradient source: uncorrected Ubar = 1.00001, pressure gradient = 0.0326588
GAMG:  Solving for p, Initial residual = 0.0245367, Final residual = 0.00194778, No Iterations 3
time step continuity errors : sum local = 2.85729e-08, global = 9.52963e-18, cumulative = -3.44914e-18
Pressure gradient source: uncorrected Ubar = 1, pressure gradient = 0.0330149
smoothSolver:  Solving for omega, Initial residual = 8.98679e-06, Final residual = 8.98679e-06, No Iterations 0
smoothSolver:  Solving for k, Initial residual = 0.0104332, Final residual = 0.000830487, No Iterations 5
ExecutionTime = 0.13094 s  ClockTime = 1 s

Time = 59s

smoothSolver:  Solving for Ux, Initial residual = 0.000182408, Final residual = 1.70318e-05, No Iterations 5
smoothSolver:  Solving for Uy, Initial residual = 0.026591, Final residual = 0.00257118, No Iterations 4
Pressure gradient source: uncorrected Ubar = 1.00001, pressure gradient = 0.0326569
GAMG:  Solving for p, Initial residual = 0.0237836, Final residual = 0.00195073, No Iterations 3
time step continuity errors : sum local = 2.71745e-08, global = -2.06055e-18, cumulative = -5.50968e-18
Pressure gradient source: uncorrected Ubar = 1, pressure gradient = 0.0329945
smoothSolver:  Solving for omega, Initial residual = 8.98679e-06, Final residual = 8.98679e-06, No Iterations 0
smoothSolver:  Solving for k, Initial residual = 0.0104232, Final residual = 0.000838218, No Iterations 5
ExecutionTime = 0.132823 s  ClockTime = 1 s

Time = 60s

smoothSolver:  Solving for Ux, Initial residual = 0.000177789, Final residual = 1.67137e-05, No Iterations 5
smoothSolver:  Solving for Uy, Initial residual = 0.0257698, Final residual = 0.00242753, No Iterations 4
Pressure gradient source: uncorrected Ubar = 1.00001, pressure gradient = 0.0326551
GAMG:  Solving for p, Initial residual = 0.0230055, Final residual = 0.00214191, No Iterations 3
time step continuity errors : sum local = 2.88874e-08, global = 2.85281e-18, cumulative = -2.65687e-18
Pressure gradient source: uncorrected Ubar = 1, pressure gradient = 0.0329755
smoothSolver:  Solving for omega, Initial residual = 8.98677e-06, Final residual = 8.98677e-06, No Iterations 0
smoothSolver:  Solving for k, Initial residual = 0.0104062, Final residual = 0.000816014, No Iterations 5
ExecutionTime = 0.134864 s  ClockTime = 1 s

Time = 61s

smoothSolver:  Solving for Ux, Initial residual = 0.000173306, Final residual = 1.63936e-05, No Iterations 5
smoothSolver:  Solving for Uy, Initial residual = 0.0250341, Final residual = 0.00227576, No Iterations 4
Pressure gradient source: uncorrected Ubar = 1.00001, pressure gradient = 0.0326534
GAMG:  Solving for p, Initial residual = 0.0222847, Final residual = 0.00202461, No Iterations 4
time step continuity errors : sum local = 2.60403e-08, global = -1.02037e-17, cumulative = -1.28605e-17
Pressure gradient source: uncorrected Ubar = 1, pressure gradient = 0.0329577
smoothSolver:  Solving for omega, Initial residual = 8.98677e-06, Final residual = 8.98677e-06, No Iterations 0
smoothSolver:  Solving for k, Initial residual = 0.0104098, Final residual = 0.000897573, No Iterations 5
ExecutionTime = 0.136821 s  ClockTime = 1 s

Time = 62s

smoothSolver:  Solving for Ux, Initial residual = 0.000169016, Final residual = 1.60723e-05, No Iterations 5
smoothSolver:  Solving for Uy, Initial residual = 0.0233687, Final residual = 0.00201154, No Iterations 4
Pressure gradient source: uncorrected Ubar = 1.00001, pressure gradient = 0.0326517
GAMG:  Solving for p, Initial residual = 0.0219177, Final residual = 0.00170206, No Iterations 4
time step continuity errors : sum local = 2.13399e-08, global = 9.07147e-18, cumulative = -3.78908e-18
Pressure gradient source: uncorrected Ubar = 1, pressure gradient = 0.032941
smoothSolver:  Solving for omega, Initial residual = 8.98675e-06, Final residual = 8.98675e-06, No Iterations 0
smoothSolver:  Solving for k, Initial residual = 0.0103984, Final residual = 0.000850608, No Iterations 5
ExecutionTime = 0.139133 s  ClockTime = 1 s

Time = 63s

smoothSolver:  Solving for Ux, Initial residual = 0.000164816, Final residual = 1.57506e-05, No Iterations 5
smoothSolver:  Solving for Uy, Initial residual = 0.0229142, Final residual = 0.00191666, No Iterations 4
Pressure gradient source: uncorrected Ubar = 1.00001, pressure gradient = 0.03265
GAMG:  Solving for p, Initial residual = 0.0212573, Final residual = 0.0017216, No Iterations 4
time step continuity errors : sum local = 2.09679e-08, global = -8.00128e-19, cumulative = -4.58921e-18
Pressure gradient source: uncorrected Ubar = 1, pressure gradient = 0.0329253
smoothSolver:  Solving for omega, Initial residual = 8.98672e-06, Final residual = 8.98672e-06, No Iterations 0
smoothSolver:  Solving for k, Initial residual = 0.0103777, Final residual = 0.000789386, No Iterations 5
ExecutionTime = 0.141211 s  ClockTime = 1 s

Time = 64s

smoothSolver:  Solving for Ux, Initial residual = 0.000160704, Final residual = 1.54293e-05, No Iterations 5
smoothSolver:  Solving for Uy, Initial residual = 0.0225938, Final residual = 0.00183571, No Iterations 4
Pressure gradient source: uncorrected Ubar = 1.00001, pressure gradient = 0.0326484
GAMG:  Solving for p, Initial residual = 0.0206988, Final residual = 0.00182879, No Iterations 4
time step continuity errors : sum local = 2.16588e-08, global = -4.80612e-18, cumulative = -9.39533e-18
Pressure gradient source: uncorrected Ubar = 1, pressure gradient = 0.0329105
smoothSolver:  Solving for omega, Initial residual = 8.9867e-06, Final residual = 8.9867e-06, No Iterations 0
smoothSolver:  Solving for k, Initial residual = 0.0103784, Final residual = 0.000887312, No Iterations 5
ExecutionTime = 0.143313 s  ClockTime = 1 s

Time = 65s

smoothSolver:  Solving for Ux, Initial residual = 0.00015668, Final residual = 1.51089e-05, No Iterations 5
smoothSolver:  Solving for Uy, Initial residual = 0.0222129, Final residual = 0.00176927, No Iterations 4
Pressure gradient source: uncorrected Ubar = 1.00001, pressure gradient = 0.0326469
GAMG:  Solving for p, Initial residual = 0.0201903, Final residual = 0.00198101, No Iterations 4
time step continuity errors : sum local = 2.28099e-08, global = -1.1574e-18, cumulative = -1.05527e-17
Pressure gradient source: uncorrected Ubar = 1, pressure gradient = 0.0328967
smoothSolver:  Solving for omega, Initial residual = 8.98666e-06, Final residual = 8.98666e-06, No Iterations 0
smoothSolver:  Solving for k, Initial residual = 0.0103713, Final residual = 0.000869645, No Iterations 5
ExecutionTime = 0.145314 s  ClockTime = 1 s

Time = 66s

smoothSolver:  Solving for Ux, Initial residual = 0.000152743, Final residual = 1.47961e-05, No Iterations 5
smoothSolver:  Solving for Uy, Initial residual = 0.0218804, Final residual = 0.00171424, No Iterations 4
Pressure gradient source: uncorrected Ubar = 1.00001, pressure gradient = 0.0326454
GAMG:  Solving for p, Initial residual = 0.0197516, Final residual = 0.00106751, No Iterations 5
time step continuity errors : sum local = 1.15686e-08, global = 1.30512e-17, cumulative = 2.49852e-18
Pressure gradient source: uncorrected Ubar = 1, pressure gradient = 0.0328836
smoothSolver:  Solving for omega, Initial residual = 8.98662e-06, Final residual = 8.98662e-06, No Iterations 0
smoothSolver:  Solving for k, Initial residual = 0.0103619, Final residual = 0.000833829, No Iterations 5
ExecutionTime = 0.147385 s  ClockTime = 1 s

Time = 67s

smoothSolver:  Solving for Ux, Initial residual = 0.000148892, Final residual = 1.44864e-05, No Iterations 5
smoothSolver:  Solving for Uy, Initial residual = 0.0215112, Final residual = 0.00159721, No Iterations 4
Pressure gradient source: uncorrected Ubar = 1.00001, pressure gradient = 0.032644
GAMG:  Solving for p, Initial residual = 0.0190191, Final residual = 0.00187381, No Iterations 4
time step continuity errors : sum local = 2.01255e-08, global = -4.27258e-18, cumulative = -1.77406e-18
Pressure gradient source: uncorrected Ubar = 1, pressure gradient = 0.0328713
smoothSolver:  Solving for omega, Initial residual = 8.98659e-06, Final residual = 8.98659e-06, No Iterations 0
smoothSolver:  Solving for k, Initial residual = 0.0103378, Final residual = 0.00078638, No Iterations 5
ExecutionTime = 0.149334 s  ClockTime = 1 s

Time = 68s

smoothSolver:  Solving for Ux, Initial residual = 0.000145126, Final residual = 1.41793e-05, No Iterations 5
smoothSolver:  Solving for Uy, Initial residual = 0.0217211, Final residual = 0.00166584, No Iterations 4
Pressure gradient source: uncorrected Ubar = 1.00001, pressure gradient = 0.0326426
GAMG:  Solving for p, Initial residual = 0.0187244, Final residual = 0.00117139, No Iterations 5
time step continuity errors : sum local = 1.19581e-08, global = 2.40457e-18, cumulative = 6.30511e-19
Pressure gradient source: uncorrected Ubar = 1, pressure gradient = 0.0328597
smoothSolver:  Solving for omega, Initial residual = 8.98655e-06, Final residual = 8.98655e-06, No Iterations 0
smoothSolver:  Solving for k, Initial residual = 0.0103255, Final residual = 0.000781529, No Iterations 5
ExecutionTime = 0.151489 s  ClockTime = 1 s

Time = 69s

smoothSolver:  Solving for Ux, Initial residual = 0.000141443, Final residual = 1.38762e-05, No Iterations 5
smoothSolver:  Solving for Uy, Initial residual = 0.0213985, Final residual = 0.00155841, No Iterations 4
Pressure gradient source: uncorrected Ubar = 1, pressure gradient = 0.0326413
GAMG:  Solving for p, Initial residual = 0.0180436, Final residual = 0.00104829, No Iterations 5
time step continuity errors : sum local = 1.03231e-08, global = 9.55345e-19, cumulative = 1.58586e-18
Pressure gradient source: uncorrected Ubar = 1, pressure gradient = 0.0328487
smoothSolver:  Solving for omega, Initial residual = 8.98651e-06, Final residual = 8.98651e-06, No Iterations 0
smoothSolver:  Solving for k, Initial residual = 0.0103151, Final residual = 0.000807409, No Iterations 5
ExecutionTime = 0.153681 s  ClockTime = 1 s

Time = 70s

smoothSolver:  Solving for Ux, Initial residual = 0.000137844, Final residual = 1.35754e-05, No Iterations 5
smoothSolver:  Solving for Uy, Initial residual = 0.0208465, Final residual = 0.0015459, No Iterations 4
Pressure gradient source: uncorrected Ubar = 1, pressure gradient = 0.03264
GAMG:  Solving for p, Initial residual = 0.0176491, Final residual = 0.00104246, No Iterations 5
time step continuity errors : sum local = 9.93924e-09, global = 6.61648e-18, cumulative = 8.20233e-18
Pressure gradient source: uncorrected Ubar = 1, pressure gradient = 0.0328383
smoothSolver:  Solving for omega, Initial residual = 8.98647e-06, Final residual = 8.98647e-06, No Iterations 0
smoothSolver:  Solving for k, Initial residual = 0.0103208, Final residual = 0.000869183, No Iterations 5
ExecutionTime = 0.155844 s  ClockTime = 1 s

Time = 71s

smoothSolver:  Solving for Ux, Initial residual = 0.000134326, Final residual = 1.32773e-05, No Iterations 5
smoothSolver:  Solving for Uy, Initial residual = 0.0208061, Final residual = 0.00155825, No Iterations 4
Pressure gradient source: uncorrected Ubar = 1, pressure gradient = 0.0326388
GAMG:  Solving for p, Initial residual = 0.0172552, Final residual = 0.00107262, No Iterations 5
time step continuity errors : sum local = 9.9328e-09, global = 3.49723e-18, cumulative = 1.16996e-17
Pressure gradient source: uncorrected Ubar = 1, pressure gradient = 0.0328285
smoothSolver:  Solving for omega, Initial residual = 8.98643e-06, Final residual = 8.98643e-06, No Iterations 0
smoothSolver:  Solving for k, Initial residual = 0.0103095, Final residual = 0.000843222, No Iterations 5
ExecutionTime = 0.157967 s  ClockTime = 1 s

Time = 72s

smoothSolver:  Solving for Ux, Initial residual = 0.000130917, Final residual = 1.29821e-05, No Iterations 5
smoothSolver:  Solving for Uy, Initial residual = 0.0207031, Final residual = 0.00156423, No Iterations 4
Pressure gradient source: uncorrected Ubar = 1, pressure gradient = 0.0326376
GAMG:  Solving for p, Initial residual = 0.0168728, Final residual = 0.00110764, No Iterations 5
time step continuity errors : sum local = 9.96368e-09, global = 4.91872e-18, cumulative = 1.66183e-17
Pressure gradient source: uncorrected Ubar = 1, pressure gradient = 0.0328192
smoothSolver:  Solving for omega, Initial residual = 8.98638e-06, Final residual = 8.98638e-06, No Iterations 0
smoothSolver:  Solving for k, Initial residual = 0.0102821, Final residual = 0.000740653, No Iterations 5
ExecutionTime = 0.159997 s  ClockTime = 1 s

Time = 73s

smoothSolver:  Solving for Ux, Initial residual = 0.000127614, Final residual = 1.26903e-05, No Iterations 5
smoothSolver:  Solving for Uy, Initial residual = 0.0205624, Final residual = 0.00155955, No Iterations 4
Pressure gradient source: uncorrected Ubar = 1, pressure gradient = 0.0326364
GAMG:  Solving for p, Initial residual = 0.0165298, Final residual = 0.00114222, No Iterations 5
time step continuity errors : sum local = 9.97042e-09, global = 3.40853e-18, cumulative = 2.00268e-17
Pressure gradient source: uncorrected Ubar = 1, pressure gradient = 0.0328104
smoothSolver:  Solving for omega, Initial residual = 8.98634e-06, Final residual = 8.98634e-06, No Iterations 0
smoothSolver:  Solving for k, Initial residual = 0.010291, Final residual = 0.00085972, No Iterations 5
ExecutionTime = 0.161979 s  ClockTime = 1 s

Time = 74s

smoothSolver:  Solving for Ux, Initial residual = 0.000124384, Final residual = 1.2402e-05, No Iterations 5
smoothSolver:  Solving for Uy, Initial residual = 0.0203906, Final residual = 0.00154953, No Iterations 4
Pressure gradient source: uncorrected Ubar = 1, pressure gradient = 0.0326353
GAMG:  Solving for p, Initial residual = 0.0162213, Final residual = 0.00117462, No Iterations 5
time step continuity errors : sum local = 9.94798e-09, global = -5.73523e-19, cumulative = 1.94533e-17
Pressure gradient source: uncorrected Ubar = 1, pressure gradient = 0.0328021
smoothSolver:  Solving for omega, Initial residual = 8.9863e-06, Final residual = 8.9863e-06, No Iterations 0
smoothSolver:  Solving for k, Initial residual = 0.0102769, Final residual = 0.000819826, No Iterations 5
ExecutionTime = 0.163924 s  ClockTime = 1 s

Time = 75s

smoothSolver:  Solving for Ux, Initial residual = 0.000121226, Final residual = 1.21175e-05, No Iterations 5
smoothSolver:  Solving for Uy, Initial residual = 0.0201884, Final residual = 0.00153423, No Iterations 4
Pressure gradient source: uncorrected Ubar = 1, pressure gradient = 0.0326342
GAMG:  Solving for p, Initial residual = 0.0159378, Final residual = 0.00120236, No Iterations 5
time step continuity errors : sum local = 9.87858e-09, global = 5.3192e-18, cumulative = 2.47725e-17
Pressure gradient source: uncorrected Ubar = 1, pressure gradient = 0.0327942
smoothSolver:  Solving for omega, Initial residual = 8.98625e-06, Final residual = 8.98625e-06, No Iterations 0
smoothSolver:  Solving for k, Initial residual = 0.0102551, Final residual = 0.000760179, No Iterations 5
ExecutionTime = 0.165879 s  ClockTime = 1 s

Time = 76s

smoothSolver:  Solving for Ux, Initial residual = 0.000118138, Final residual = 7.77979e-06, No Iterations 6
smoothSolver:  Solving for Uy, Initial residual = 0.0200124, Final residual = 0.00151778, No Iterations 4
Pressure gradient source: uncorrected Ubar = 1, pressure gradient = 0.0326869
GAMG:  Solving for p, Initial residual = 0.0737779, Final residual = 0.00490124, No Iterations 4
time step continuity errors : sum local = 3.72583e-08, global = 9.39716e-18, cumulative = 3.41696e-17
Pressure gradient source: uncorrected Ubar = 1, pressure gradient = 0.0327909
smoothSolver:  Solving for omega, Initial residual = 8.98621e-06, Final residual = 8.98621e-06, No Iterations 0
smoothSolver:  Solving for k, Initial residual = 0.0102671, Final residual = 0.000865359, No Iterations 5
ExecutionTime = 0.167965 s  ClockTime = 1 s

Time = 77s

smoothSolver:  Solving for Ux, Initial residual = 0.000114899, Final residual = 7.57145e-06, No Iterations 6
smoothSolver:  Solving for Uy, Initial residual = 0.0611136, Final residual = 0.00413696, No Iterations 4
Pressure gradient source: uncorrected Ubar = 1, pressure gradient = 0.0326671
GAMG:  Solving for p, Initial residual = 0.067979, Final residual = 0.00446337, No Iterations 4
time step continuity errors : sum local = 3.09112e-08, global = -5.29837e-18, cumulative = 2.88713e-17
Pressure gradient source: uncorrected Ubar = 1, pressure gradient = 0.0327849
smoothSolver:  Solving for omega, Initial residual = 8.98616e-06, Final residual = 8.98616e-06, No Iterations 0
smoothSolver:  Solving for k, Initial residual = 0.0102451, Final residual = 0.000773078, No Iterations 5
ExecutionTime = 0.169895 s  ClockTime = 1 s

Time = 78s

smoothSolver:  Solving for Ux, Initial residual = 0.000111793, Final residual = 7.37871e-06, No Iterations 6
smoothSolver:  Solving for Uy, Initial residual = 0.0855805, Final residual = 0.00540599, No Iterations 4
Pressure gradient source: uncorrected Ubar = 1, pressure gradient = 0.0326641
GAMG:  Solving for p, Initial residual = 0.0585497, Final residual = 0.00425215, No Iterations 4
time step continuity errors : sum local = 2.72983e-08, global = 5.65243e-18, cumulative = 3.45237e-17
Pressure gradient source: uncorrected Ubar = 1, pressure gradient = 0.032779
smoothSolver:  Solving for omega, Initial residual = 8.98612e-06, Final residual = 8.98612e-06, No Iterations 0
smoothSolver:  Solving for k, Initial residual = 0.0102223, Final residual = 0.000749585, No Iterations 5
ExecutionTime = 0.172245 s  ClockTime = 1 s

Time = 79s

smoothSolver:  Solving for Ux, Initial residual = 0.000108773, Final residual = 7.19177e-06, No Iterations 6
smoothSolver:  Solving for Uy, Initial residual = 0.0917056, Final residual = 0.00601581, No Iterations 4
Pressure gradient source: uncorrected Ubar = 1, pressure gradient = 0.0326609
GAMG:  Solving for p, Initial residual = 0.047277, Final residual = 0.00331462, No Iterations 5
time step continuity errors : sum local = 1.91985e-08, global = -4.07349e-18, cumulative = 3.04502e-17
Pressure gradient source: uncorrected Ubar = 1, pressure gradient = 0.032773
smoothSolver:  Solving for omega, Initial residual = 8.98605e-06, Final residual = 8.98605e-06, No Iterations 0
smoothSolver:  Solving for k, Initial residual = 0.0102202, Final residual = 0.000796327, No Iterations 5
ExecutionTime = 0.174388 s  ClockTime = 1 s

Time = 80s

smoothSolver:  Solving for Ux, Initial residual = 0.000105839, Final residual = 7.0099e-06, No Iterations 6
smoothSolver:  Solving for Uy, Initial residual = 0.089464, Final residual = 0.00584689, No Iterations 4
Pressure gradient source: uncorrected Ubar = 1, pressure gradient = 0.0326583
GAMG:  Solving for p, Initial residual = 0.0388579, Final residual = 0.00368542, No Iterations 5
time step continuity errors : sum local = 1.98803e-08, global = 2.44474e-18, cumulative = 3.2895e-17
Pressure gradient source: uncorrected Ubar = 1, pressure gradient = 0.0327672
smoothSolver:  Solving for omega, Initial residual = 8.98601e-06, Final residual = 8.98601e-06, No Iterations 0
smoothSolver:  Solving for k, Initial residual = 0.0102063, Final residual = 0.000769822, No Iterations 5
ExecutionTime = 0.176425 s  ClockTime = 1 s

Time = 81s

smoothSolver:  Solving for Ux, Initial residual = 0.000102986, Final residual = 6.83294e-06, No Iterations 6
smoothSolver:  Solving for Uy, Initial residual = 0.0782133, Final residual = 0.00535148, No Iterations 4
Pressure gradient source: uncorrected Ubar = 1, pressure gradient = 0.0326561
GAMG:  Solving for p, Initial residual = 0.0342155, Final residual = 0.00337344, No Iterations 5
time step continuity errors : sum local = 1.70524e-08, global = 7.81068e-18, cumulative = 4.07056e-17
Pressure gradient source: uncorrected Ubar = 1, pressure gradient = 0.0327615
smoothSolver:  Solving for omega, Initial residual = 8.98596e-06, Final residual = 8.98596e-06, No Iterations 0
smoothSolver:  Solving for k, Initial residual = 0.0102165, Final residual = 0.000858155, No Iterations 5
ExecutionTime = 0.17842 s  ClockTime = 1 s

Time = 82s

smoothSolver:  Solving for Ux, Initial residual = 0.00010021, Final residual = 6.66052e-06, No Iterations 6
smoothSolver:  Solving for Uy, Initial residual = 0.0636613, Final residual = 0.00471585, No Iterations 4
Pressure gradient source: uncorrected Ubar = 1, pressure gradient = 0.0326541
GAMG:  Solving for p, Initial residual = 0.0298426, Final residual = 0.00242869, No Iterations 5
time step continuity errors : sum local = 1.1495e-08, global = 9.01543e-19, cumulative = 4.16072e-17
Pressure gradient source: uncorrected Ubar = 1, pressure gradient = 0.032756
smoothSolver:  Solving for omega, Initial residual = 8.98592e-06, Final residual = 8.98592e-06, No Iterations 0
smoothSolver:  Solving for k, Initial residual = 0.0101964, Final residual = 0.000761082, No Iterations 5
ExecutionTime = 0.180431 s  ClockTime = 1 s

Time = 83s

smoothSolver:  Solving for Ux, Initial residual = 9.75088e-05, Final residual = 9.86901e-06, No Iterations 5
smoothSolver:  Solving for Uy, Initial residual = 0.0495636, Final residual = 0.00430228, No Iterations 4
Pressure gradient source: uncorrected Ubar = 1, pressure gradient = 0.0326109
GAMG:  Solving for p, Initial residual = 0.068782, Final residual = 0.00387017, No Iterations 4
time step continuity errors : sum local = 1.88802e-08, global = -1.00698e-19, cumulative = 4.15065e-17
Pressure gradient source: uncorrected Ubar = 1, pressure gradient = 0.0327474
smoothSolver:  Solving for omega, Initial residual = 8.98588e-06, Final residual = 8.98588e-06, No Iterations 0
smoothSolver:  Solving for k, Initial residual = 0.0101863, Final residual = 0.000786373, No Iterations 5
ExecutionTime = 0.182387 s  ClockTime = 1 s

Time = 84s

smoothSolver:  Solving for Ux, Initial residual = 9.5058e-05, Final residual = 9.64909e-06, No Iterations 5
smoothSolver:  Solving for Uy, Initial residual = 0.0649196, Final residual = 0.00555264, No Iterations 4
Pressure gradient source: uncorrected Ubar = 1, pressure gradient = 0.0326229
GAMG:  Solving for p, Initial residual = 0.0556053, Final residual = 0.00534255, No Iterations 4
time step continuity errors : sum local = 2.6822e-08, global = -9.08314e-19, cumulative = 4.05982e-17
Pressure gradient source: uncorrected Ubar = 1, pressure gradient = 0.0327413
smoothSolver:  Solving for omega, Initial residual = 8.98583e-06, Final residual = 8.98583e-06, No Iterations 0
smoothSolver:  Solving for k, Initial residual = 0.0101761, Final residual = 0.000765925, No Iterations 5
ExecutionTime = 0.184474 s  ClockTime = 1 s

Time = 85s

smoothSolver:  Solving for Ux, Initial residual = 9.26264e-05, Final residual = 9.42431e-06, No Iterations 5
smoothSolver:  Solving for Uy, Initial residual = 0.0687183, Final residual = 0.00584168, No Iterations 4
Pressure gradient source: uncorrected Ubar = 1, pressure gradient = 0.0326229
GAMG:  Solving for p, Initial residual = 0.0421688, Final residual = 0.00292425, No Iterations 5
time step continuity errors : sum local = 1.5986e-08, global = 1.93365e-17, cumulative = 5.99347e-17
Pressure gradient source: uncorrected Ubar = 1, pressure gradient = 0.0327357
smoothSolver:  Solving for omega, Initial residual = 8.98579e-06, Final residual = 8.98579e-06, No Iterations 0
smoothSolver:  Solving for k, Initial residual = 0.0101792, Final residual = 0.000834957, No Iterations 5
ExecutionTime = 0.186448 s  ClockTime = 1 s

Time = 86s

smoothSolver:  Solving for Ux, Initial residual = 9.02472e-05, Final residual = 9.20158e-06, No Iterations 5
smoothSolver:  Solving for Uy, Initial residual = 0.0564324, Final residual = 0.00440913, No Iterations 4
Pressure gradient source: uncorrected Ubar = 1, pressure gradient = 0.032623
GAMG:  Solving for p, Initial residual = 0.0270347, Final residual = 0.00265032, No Iterations 4
time step continuity errors : sum local = 1.39178e-08, global = 1.74761e-19, cumulative = 6.01094e-17
Pressure gradient source: uncorrected Ubar = 1, pressure gradient = 0.0327305
smoothSolver:  Solving for omega, Initial residual = 8.98574e-06, Final residual = 8.98574e-06, No Iterations 0
smoothSolver:  Solving for k, Initial residual = 0.010158, Final residual = 0.000756905, No Iterations 5
ExecutionTime = 0.188764 s  ClockTime = 1 s

Time = 87s

smoothSolver:  Solving for Ux, Initial residual = 8.79185e-05, Final residual = 8.98138e-06, No Iterations 5
smoothSolver:  Solving for Uy, Initial residual = 0.0404171, Final residual = 0.00316764, No Iterations 4
Pressure gradient source: uncorrected Ubar = 1, pressure gradient = 0.0326228
GAMG:  Solving for p, Initial residual = 0.0167906, Final residual = 0.00159625, No Iterations 3
time step continuity errors : sum local = 8.50558e-09, global = -9.74156e-18, cumulative = 5.03679e-17
Pressure gradient source: uncorrected Ubar = 1, pressure gradient = 0.0327256
smoothSolver:  Solving for omega, Initial residual = 8.9857e-06, Final residual = 8.9857e-06, No Iterations 0
smoothSolver:  Solving for k, Initial residual = 0.0101636, Final residual = 0.000827634, No Iterations 5
ExecutionTime = 0.190812 s  ClockTime = 1 s

Time = 88s

smoothSolver:  Solving for Ux, Initial residual = 8.5644e-05, Final residual = 8.76428e-06, No Iterations 5
smoothSolver:  Solving for Uy, Initial residual = 0.0276851, Final residual = 0.0022887, No Iterations 4
Pressure gradient source: uncorrected Ubar = 1, pressure gradient = 0.0326224
GAMG:  Solving for p, Initial residual = 0.0109171, Final residual = 0.000737681, No Iterations 5
time step continuity errors : sum local = 3.91608e-09, global = 4.73199e-18, cumulative = 5.50999e-17
Pressure gradient source: uncorrected Ubar = 1, pressure gradient = 0.0327211
smoothSolver:  Solving for omega, Initial residual = 8.98565e-06, Final residual = 8.98565e-06, No Iterations 0
smoothSolver:  Solving for k, Initial residual = 0.0101416, Final residual = 0.000735688, No Iterations 5
ExecutionTime = 0.192828 s  ClockTime = 1 s

Time = 89s

smoothSolver:  Solving for Ux, Initial residual = 8.34346e-05, Final residual = 8.55062e-06, No Iterations 5
smoothSolver:  Solving for Uy, Initial residual = 0.0178646, Final residual = 0.00167841, No Iterations 4
Pressure gradient source: uncorrected Ubar = 1, pressure gradient = 0.0326219
GAMG:  Solving for p, Initial residual = 0.0116986, Final residual = 0.000620156, No Iterations 5
time step continuity errors : sum local = 3.47811e-09, global = -1.50534e-18, cumulative = 5.35945e-17
Pressure gradient source: uncorrected Ubar = 1, pressure gradient = 0.0327167
smoothSolver:  Solving for omega, Initial residual = 8.9856e-06, Final residual = 8.9856e-06, No Iterations 0
smoothSolver:  Solving for k, Initial residual = 0.0101423, Final residual = 0.000824039, No Iterations 5
ExecutionTime = 0.194842 s  ClockTime = 1 s

Time = 90s

[...]
Pressure gradient source: uncorrected Ubar = 1, pressure gradient = 0.0325922
GAMG:  Solving for p, Initial residual = 0.0133229, Final residual = 0.000797412, No Iterations 5
time step continuity errors : sum local = 3.43279e-09, global = 1.03231e-17, cumulative = 4.6834e-17
Pressure gradient source: uncorrected Ubar = 1, pressure gradient = 0.032608
smoothSolver:  Solving for omega, Initial residual = 4.88963e-06, Final residual = 4.88963e-06, No Iterations 0
smoothSolver:  Solving for k, Initial residual = 0.00459685, Final residual = 0.000407475, No Iterations 5
bounding k, min: 2.95965e-17 max: 1.15142e-11 average: 5.6071e-12
ExecutionTime = 0.316918 s  ClockTime = 1 s

Time = 147s

smoothSolver:  Solving for Ux, Initial residual = 2.11306e-05, Final residual = 8.22097e-06, No Iterations 2
smoothSolver:  Solving for Uy, Initial residual = 0.0112835, Final residual = 0.000655582, No Iterations 4
Pressure gradient source: uncorrected Ubar = 1, pressure gradient = 0.0325924
GAMG:  Solving for p, Initial residual = 0.013764, Final residual = 0.000928741, No Iterations 5
time step continuity errors : sum local = 3.77874e-09, global = -1.09639e-18, cumulative = 4.57376e-17
Pressure gradient source: uncorrected Ubar = 1, pressure gradient = 0.0326077
smoothSolver:  Solving for omega, Initial residual = 5.12598e-06, Final residual = 5.12598e-06, No Iterations 0
smoothSolver:  Solving for k, Initial residual = 0.0045692, Final residual = 0.000339186, No Iterations 5
bounding k, min: 2.90233e-17 max: 1.07811e-11 average: 5.24109e-12
ExecutionTime = 0.319212 s  ClockTime = 1 s

Time = 148s

smoothSolver:  Solving for Ux, Initial residual = 2.07185e-05, Final residual = 8.06638e-06, No Iterations 2
smoothSolver:  Solving for Uy, Initial residual = 0.0127053, Final residual = 0.000750934, No Iterations 4
Pressure gradient source: uncorrected Ubar = 1, pressure gradient = 0.0325925
GAMG:  Solving for p, Initial residual = 0.0135659, Final residual = 0.000943614, No Iterations 4
time step continuity errors : sum local = 3.64239e-09, global = -1.01948e-17, cumulative = 3.55428e-17
Pressure gradient source: uncorrected Ubar = 1, pressure gradient = 0.0326073
smoothSolver:  Solving for omega, Initial residual = 5.32562e-06, Final residual = 5.32562e-06, No Iterations 0
smoothSolver:  Solving for k, Initial residual = 0.00459648, Final residual = 0.000314453, No Iterations 6
bounding k, min: 2.84857e-17 max: 9.93314e-12 average: 4.84507e-12
ExecutionTime = 0.321583 s  ClockTime = 1 s

Time = 149s

smoothSolver:  Solving for Ux, Initial residual = 2.03131e-05, Final residual = 7.9138e-06, No Iterations 2
smoothSolver:  Solving for Uy, Initial residual = 0.0137053, Final residual = 0.000831921, No Iterations 4
Pressure gradient source: uncorrected Ubar = 1, pressure gradient = 0.0325927
GAMG:  Solving for p, Initial residual = 0.0132171, Final residual = 0.000734999, No Iterations 4
time step continuity errors : sum local = 2.77682e-09, global = -2.34193e-18, cumulative = 3.32009e-17
Pressure gradient source: uncorrected Ubar = 1, pressure gradient = 0.0326071
smoothSolver:  Solving for omega, Initial residual = 5.50012e-06, Final residual = 5.50012e-06, No Iterations 0
smoothSolver:  Solving for k, Initial residual = 0.00459372, Final residual = 0.00031675, No Iterations 6
bounding k, min: 2.80249e-17 max: 9.16685e-12 average: 4.47884e-12
ExecutionTime = 0.323865 s  ClockTime = 1 s

Time = 150s

smoothSolver:  Solving for Ux, Initial residual = 1.99147e-05, Final residual = 7.76334e-06, No Iterations 2
smoothSolver:  Solving for Uy, Initial residual = 0.0143757, Final residual = 0.000883652, No Iterations 4
Pressure gradient source: uncorrected Ubar = 1, pressure gradient = 0.0325929
GAMG:  Solving for p, Initial residual = 0.0126606, Final residual = 0.000645867, No Iterations 4
time step continuity errors : sum local = 2.33985e-09, global = -1.51605e-19, cumulative = 3.30493e-17
Pressure gradient source: uncorrected Ubar = 1, pressure gradient = 0.0326068
smoothSolver:  Solving for omega, Initial residual = 5.64654e-06, Final residual = 5.64654e-06, No Iterations 0
smoothSolver:  Solving for k, Initial residual = 0.0045738, Final residual = 0.000414319, No Iterations 5
bounding k, min: 2.76333e-17 max: 8.56803e-12 average: 4.17099e-12
ExecutionTime = 0.325932 s  ClockTime = 1 s

Time = 151s

smoothSolver:  Solving for Ux, Initial residual = 1.95244e-05, Final residual = 7.61511e-06, No Iterations 2
smoothSolver:  Solving for Uy, Initial residual = 0.0146321, Final residual = 0.00091782, No Iterations 4
Pressure gradient source: uncorrected Ubar = 1, pressure gradient = 0.032593
GAMG:  Solving for p, Initial residual = 0.0122376, Final residual = 0.000763921, No Iterations 4
time step continuity errors : sum local = 2.63534e-09, global = 4.75033e-18, cumulative = 3.77996e-17
Pressure gradient source: uncorrected Ubar = 1, pressure gradient = 0.0326065
smoothSolver:  Solving for omega, Initial residual = 5.76558e-06, Final residual = 5.76558e-06, No Iterations 0
smoothSolver:  Solving for k, Initial residual = 0.00456144, Final residual = 0.000387959, No Iterations 5
bounding k, min: 2.72773e-17 max: 7.91924e-12 average: 3.89136e-12
ExecutionTime = 0.328051 s  ClockTime = 1 s

Time = 152s

smoothSolver:  Solving for Ux, Initial residual = 1.91413e-05, Final residual = 7.46934e-06, No Iterations 2
smoothSolver:  Solving for Uy, Initial residual = 0.0145437, Final residual = 0.000930529, No Iterations 4
Pressure gradient source: uncorrected Ubar = 1, pressure gradient = 0.0325932
GAMG:  Solving for p, Initial residual = 0.0119132, Final residual = 0.00112804, No Iterations 4
time step continuity errors : sum local = 3.80249e-09, global = -2.83585e-18, cumulative = 3.49638e-17
Pressure gradient source: uncorrected Ubar = 1, pressure gradient = 0.0326063
smoothSolver:  Solving for omega, Initial residual = 5.86745e-06, Final residual = 5.86745e-06, No Iterations 0
smoothSolver:  Solving for k, Initial residual = 0.00455374, Final residual = 0.0003791, No Iterations 5
bounding k, min: 2.6952e-17 max: 7.47894e-12 average: 3.62982e-12
ExecutionTime = 0.330105 s  ClockTime = 1 s

Time = 153s

smoothSolver:  Solving for Ux, Initial residual = 1.87656e-05, Final residual = 7.32585e-06, No Iterations 2
smoothSolver:  Solving for Uy, Initial residual = 0.0143008, Final residual = 0.000952124, No Iterations 4
Pressure gradient source: uncorrected Ubar = 1, pressure gradient = 0.0325933
GAMG:  Solving for p, Initial residual = 0.011634, Final residual = 0.000971246, No Iterations 5
time step continuity errors : sum local = 3.19718e-09, global = 8.19524e-18, cumulative = 4.3159e-17
Pressure gradient source: uncorrected Ubar = 1, pressure gradient = 0.0326061
smoothSolver:  Solving for omega, Initial residual = 5.95582e-06, Final residual = 5.95582e-06, No Iterations 0
smoothSolver:  Solving for k, Initial residual = 0.00455723, Final residual = 0.000413528, No Iterations 5
bounding k, min: 2.66538e-17 max: 6.91599e-12 average: 3.38157e-12
ExecutionTime = 0.332133 s  ClockTime = 1 s

Time = 154s

smoothSolver:  Solving for Ux, Initial residual = 1.83966e-05, Final residual = 7.18466e-06, No Iterations 2
smoothSolver:  Solving for Uy, Initial residual = 0.0143589, Final residual = 0.000963314, No Iterations 4
Pressure gradient source: uncorrected Ubar = 1, pressure gradient = 0.0325935
GAMG:  Solving for p, Initial residual = 0.0113142, Final residual = 0.000836662, No Iterations 5
time step continuity errors : sum local = 2.87075e-09, global = 5.33604e-18, cumulative = 4.8495e-17
Pressure gradient source: uncorrected Ubar = 1, pressure gradient = 0.0326059
smoothSolver:  Solving for omega, Initial residual = 6.03382e-06, Final residual = 6.03382e-06, No Iterations 0
smoothSolver:  Solving for k, Initial residual = 0.00456673, Final residual = 0.000296493, No Iterations 6
bounding k, min: 2.63726e-17 max: 6.38933e-12 average: 3.13202e-12
ExecutionTime = 0.33426 s  ClockTime = 1 s

Time = 155s

smoothSolver:  Solving for Ux, Initial residual = 1.80343e-05, Final residual = 7.04581e-06, No Iterations 2
smoothSolver:  Solving for Uy, Initial residual = 0.014338, Final residual = 0.00100674, No Iterations 4
Pressure gradient source: uncorrected Ubar = 1, pressure gradient = 0.0325936
GAMG:  Solving for p, Initial residual = 0.0112987, Final residual = 0.000899508, No Iterations 5
time step continuity errors : sum local = 3.01762e-09, global = -1.11281e-18, cumulative = 4.73822e-17
Pressure gradient source: uncorrected Ubar = 1, pressure gradient = 0.0326057
smoothSolver:  Solving for omega, Initial residual = 6.10478e-06, Final residual = 6.10478e-06, No Iterations 0
smoothSolver:  Solving for k, Initial residual = 0.00456288, Final residual = 0.000436273, No Iterations 5
bounding k, min: 2.61193e-17 max: 6.00906e-12 average: 2.91036e-12
ExecutionTime = 0.336293 s  ClockTime = 1 s

Time = 156s

smoothSolver:  Solving for Ux, Initial residual = 1.76787e-05, Final residual = 6.9093e-06, No Iterations 2
smoothSolver:  Solving for Uy, Initial residual = 0.0141285, Final residual = 0.00102479, No Iterations 4
Pressure gradient source: uncorrected Ubar = 1, pressure gradient = 0.0325937
GAMG:  Solving for p, Initial residual = 0.0112011, Final residual = 0.000967829, No Iterations 5
time step continuity errors : sum local = 3.1654e-09, global = -4.09851e-18, cumulative = 4.32837e-17
Pressure gradient source: uncorrected Ubar = 1, pressure gradient = 0.0326055
smoothSolver:  Solving for omega, Initial residual = 6.16229e-06, Final residual = 6.16229e-06, No Iterations 0
smoothSolver:  Solving for k, Initial residual = 0.00455291, Final residual = 0.000414659, No Iterations 5
bounding k, min: 2.58874e-17 max: 5.54915e-12 average: 2.71116e-12
ExecutionTime = 0.338832 s  ClockTime = 1 s

Time = 157s

smoothSolver:  Solving for Ux, Initial residual = 1.73297e-05, Final residual = 6.77512e-06, No Iterations 2
smoothSolver:  Solving for Uy, Initial residual = 0.0139765, Final residual = 0.00103314, No Iterations 4
Pressure gradient source: uncorrected Ubar = 1, pressure gradient = 0.0325939
GAMG:  Solving for p, Initial residual = 0.0111151, Final residual = 0.00101761, No Iterations 5
time step continuity errors : sum local = 3.24284e-09, global = -9.68342e-19, cumulative = 4.23154e-17
Pressure gradient source: uncorrected Ubar = 1, pressure gradient = 0.0326053
smoothSolver:  Solving for omega, Initial residual = 6.2095e-06, Final residual = 6.2095e-06, No Iterations 0
smoothSolver:  Solving for k, Initial residual = 0.00453254, Final residual = 0.000346378, No Iterations 5
bounding k, min: 2.56741e-17 max: 5.23513e-12 average: 2.53417e-12
ExecutionTime = 0.341069 s  ClockTime = 1 s

Time = 158s

smoothSolver:  Solving for Ux, Initial residual = 1.69873e-05, Final residual = 6.64328e-06, No Iterations 2
smoothSolver:  Solving for Uy, Initial residual = 0.0139032, Final residual = 0.00103882, No Iterations 4
Pressure gradient source: uncorrected Ubar = 1, pressure gradient = 0.032594
GAMG:  Solving for p, Initial residual = 0.0110392, Final residual = 0.00104432, No Iterations 5
time step continuity errors : sum local = 3.24728e-09, global = -8.98294e-18, cumulative = 3.33324e-17
Pressure gradient source: uncorrected Ubar = 1, pressure gradient = 0.0326052
smoothSolver:  Solving for omega, Initial residual = 6.24689e-06, Final residual = 6.24689e-06, No Iterations 0
smoothSolver:  Solving for k, Initial residual = 0.00455008, Final residual = 0.000426137, No Iterations 5
bounding k, min: 2.54775e-17 max: 4.84652e-12 average: 2.35831e-12
ExecutionTime = 0.343326 s  ClockTime = 1 s

Time = 159s

smoothSolver:  Solving for Ux, Initial residual = 1.66512e-05, Final residual = 6.51376e-06, No Iterations 2
smoothSolver:  Solving for Uy, Initial residual = 0.0138512, Final residual = 0.00104284, No Iterations 4
Pressure gradient source: uncorrected Ubar = 1, pressure gradient = 0.0325941
GAMG:  Solving for p, Initial residual = 0.0109766, Final residual = 0.000957863, No Iterations 5
time step continuity errors : sum local = 2.82049e-09, global = -6.56343e-18, cumulative = 2.6769e-17
Pressure gradient source: uncorrected Ubar = 1, pressure gradient = 0.032605
smoothSolver:  Solving for omega, Initial residual = 6.27586e-06, Final residual = 6.27586e-06, No Iterations 0
smoothSolver:  Solving for k, Initial residual = 0.00454535, Final residual = 0.000403504, No Iterations 5
bounding k, min: 2.52961e-17 max: 4.53196e-12 average: 2.19674e-12
ExecutionTime = 0.345415 s  ClockTime = 1 s

Time = 160s

smoothSolver:  Solving for Ux, Initial residual = 1.63216e-05, Final residual = 9.91722e-06, No Iterations 1
smoothSolver:  Solving for Uy, Initial residual = 0.0138628, Final residual = 0.0010447, No Iterations 4
Pressure gradient source: uncorrected Ubar = 1, pressure gradient = 0.0325856
GAMG:  Solving for p, Initial residual = 0.0195399, Final residual = 0.00174907, No Iterations 5
time step continuity errors : sum local = 5.38099e-09, global = 1.48352e-18, cumulative = 2.82525e-17
Pressure gradient source: uncorrected Ubar = 1, pressure gradient = 0.0325993
smoothSolver:  Solving for omega, Initial residual = 6.29792e-06, Final residual = 6.29792e-06, No Iterations 0
smoothSolver:  Solving for k, Initial residual = 0.00453777, Final residual = 0.000386108, No Iterations 5
bounding k, min: 2.51285e-17 max: 4.24149e-12 average: 2.04846e-12
ExecutionTime = 0.347494 s  ClockTime = 1 s

Time = 161s

smoothSolver:  Solving for Ux, Initial residual = 1.61771e-05, Final residual = 9.87908e-06, No Iterations 1
smoothSolver:  Solving for Uy, Initial residual = 0.0184181, Final residual = 0.00113731, No Iterations 4
Pressure gradient source: uncorrected Ubar = 1, pressure gradient = 0.0325938
GAMG:  Solving for p, Initial residual = 0.0179799, Final residual = 0.00173691, No Iterations 6
time step continuity errors : sum local = 5.2104e-09, global = 2.32126e-19, cumulative = 2.84847e-17
Pressure gradient source: uncorrected Ubar = 1, pressure gradient = 0.0325981
smoothSolver:  Solving for omega, Initial residual = 6.31448e-06, Final residual = 6.31448e-06, No Iterations 0
smoothSolver:  Solving for k, Initial residual = 0.00452759, Final residual = 0.00035207, No Iterations 5
bounding k, min: 2.49737e-17 max: 3.96758e-12 average: 1.91259e-12
ExecutionTime = 0.349565 s  ClockTime = 1 s

Time = 162s

smoothSolver:  Solving for Ux, Initial residual = 1.5979e-05, Final residual = 9.78554e-06, No Iterations 1
smoothSolver:  Solving for Uy, Initial residual = 0.0231318, Final residual = 0.00137632, No Iterations 4
Pressure gradient source: uncorrected Ubar = 1, pressure gradient = 0.0325943
GAMG:  Solving for p, Initial residual = 0.0198275, Final residual = 0.00173281, No Iterations 6
time step continuity errors : sum local = 5.29498e-09, global = -1.3209e-17, cumulative = 1.52757e-17
Pressure gradient source: uncorrected Ubar = 1, pressure gradient = 0.0325973
smoothSolver:  Solving for omega, Initial residual = 6.32689e-06, Final residual = 6.32689e-06, No Iterations 0
smoothSolver:  Solving for k, Initial residual = 0.00453796, Final residual = 0.000410435, No Iterations 5
bounding k, min: 2.48305e-17 max: 3.69166e-12 average: 1.78185e-12
ExecutionTime = 0.351768 s  ClockTime = 1 s

Time = 163s

smoothSolver:  Solving for Ux, Initial residual = 1.57772e-05, Final residual = 9.6815e-06, No Iterations 1
smoothSolver:  Solving for Uy, Initial residual = 0.0229262, Final residual = 0.0013404, No Iterations 4
Pressure gradient source: uncorrected Ubar = 1, pressure gradient = 0.0325945
GAMG:  Solving for p, Initial residual = 0.018983, Final residual = 0.00130606, No Iterations 6
time step continuity errors : sum local = 4.34034e-09, global = -8.58878e-19, cumulative = 1.44168e-17
Pressure gradient source: uncorrected Ubar = 1, pressure gradient = 0.0325968
smoothSolver:  Solving for omega, Initial residual = 6.33621e-06, Final residual = 6.33621e-06, No Iterations 0
smoothSolver:  Solving for k, Initial residual = 0.00454881, Final residual = 0.000444119, No Iterations 5
bounding k, min: 2.46981e-17 max: 3.41236e-12 average: 1.65596e-12
ExecutionTime = 0.354263 s  ClockTime = 1 s

Time = 164s

smoothSolver:  Solving for Ux, Initial residual = 1.55744e-05, Final residual = 9.5721e-06, No Iterations 1
smoothSolver:  Solving for Uy, Initial residual = 0.0196167, Final residual = 0.00105965, No Iterations 4
Pressure gradient source: uncorrected Ubar = 1, pressure gradient = 0.0325945
GAMG:  Solving for p, Initial residual = 0.0151075, Final residual = 0.00105938, No Iterations 5
time step continuity errors : sum local = 3.39194e-09, global = -8.48367e-18, cumulative = 5.93314e-18
Pressure gradient source: uncorrected Ubar = 1, pressure gradient = 0.0325964
smoothSolver:  Solving for omega, Initial residual = 6.34314e-06, Final residual = 6.34314e-06, No Iterations 0
smoothSolver:  Solving for k, Initial residual = 0.00454327, Final residual = 0.000411117, No Iterations 5
bounding k, min: 2.45756e-17 max: 3.1681e-12 average: 1.54244e-12
ExecutionTime = 0.356435 s  ClockTime = 1 s

Time = 165s

smoothSolver:  Solving for Ux, Initial residual = 1.53722e-05, Final residual = 9.45979e-06, No Iterations 1
smoothSolver:  Solving for Uy, Initial residual = 0.0153259, Final residual = 0.00153248, No Iterations 3
Pressure gradient source: uncorrected Ubar = 1, pressure gradient = 0.0325946
GAMG:  Solving for p, Initial residual = 0.0109827, Final residual = 0.000900945, No Iterations 3
time step continuity errors : sum local = 2.98731e-09, global = 6.09288e-18, cumulative = 1.2026e-17
Pressure gradient source: uncorrected Ubar = 1, pressure gradient = 0.0325961
smoothSolver:  Solving for omega, Initial residual = 6.34831e-06, Final residual = 6.34831e-06, No Iterations 0
smoothSolver:  Solving for k, Initial residual = 0.00453442, Final residual = 0.00037137, No Iterations 5
bounding k, min: 2.44621e-17 max: 2.98186e-12 average: 1.43938e-12
ExecutionTime = 0.358716 s  ClockTime = 1 s

Time = 166s

smoothSolver:  Solving for Ux, Initial residual = 1.5171e-05, Final residual = 9.34582e-06, No Iterations 1
smoothSolver:  Solving for Uy, Initial residual = 0.0110103, Final residual = 0.00055363, No Iterations 4
Pressure gradient source: uncorrected Ubar = 1, pressure gradient = 0.0325946
GAMG:  Solving for p, Initial residual = 0.00806983, Final residual = 0.000564801, No Iterations 4
time step continuity errors : sum local = 1.83627e-09, global = -1.39493e-18, cumulative = 1.06311e-17
Pressure gradient source: uncorrected Ubar = 1, pressure gradient = 0.0325959
smoothSolver:  Solving for omega, Initial residual = 6.35217e-06, Final residual = 6.35217e-06, No Iterations 0
smoothSolver:  Solving for k, Initial residual = 0.00455126, Final residual = 0.000437399, No Iterations 5
bounding k, min: 2.4357e-17 max: 2.75187e-12 average: 1.33904e-12
ExecutionTime = 0.360805 s  ClockTime = 1 s

Time = 167s

smoothSolver:  Solving for Ux, Initial residual = 1.49711e-05, Final residual = 9.23093e-06, No Iterations 1
smoothSolver:  Solving for Uy, Initial residual = 0.0072164, Final residual = 0.000378406, No Iterations 4
Pressure gradient source: uncorrected Ubar = 1, pressure gradient = 0.0325946
GAMG:  Solving for p, Initial residual = 0.00699679, Final residual = 0.000677845, No Iterations 6
time step continuity errors : sum local = 2.32234e-09, global = -2.18756e-19, cumulative = 1.04123e-17
Pressure gradient source: uncorrected Ubar = 1, pressure gradient = 0.0325958
smoothSolver:  Solving for omega, Initial residual = 6.35505e-06, Final residual = 6.35505e-06, No Iterations 0
smoothSolver:  Solving for k, Initial residual = 0.00454704, Final residual = 0.000401741, No Iterations 5
bounding k, min: 2.42597e-17 max: 2.55289e-12 average: 1.24782e-12
ExecutionTime = 0.362831 s  ClockTime = 1 s


SIMPLE solution converged in 167 iterations

End

