/*---------------------------------------------------------------------------*\
  =========                 |
  \\      /  F ield         | OpenFOAM: The Open Source CFD Toolbox
   \\    /   O peration     | Website:  https://openfoam.org
    \\  /    A nd           | Version:  10
     \\/     M anipulation  |
\*---------------------------------------------------------------------------*/
Build  : 10-e450dce21ea5
Exec   : blockMesh
Date   : Jan 16 2023
Time   : 11:44:19
Host   : "w530-R9YK46P"
PID    : 14490
I/O    : uncollated
Case   : /home/jdmezazeron/gitDanielMezaZ/turbulenceVisualized/Data/SimulationFiles/E28_Re29548
nProcs : 1
sigFpe : Enabling floating point exception trapping (FOAM_SIGFPE).
fileModificationChecking : Monitoring run-time modified files using timeStampMaster (fileModificationSkew 10)
allowSystemOperations : Allowing user-supplied system call operations

// * * * * * * * * * * * * * * * * * * * * * * * * * * * * * * * * * * * * * //
Create time

Reading "blockMeshDict"

Creating block mesh from
    "system/blockMeshDict"
Creating block edges
No non-planar block faces defined
Creating topology blocks
Creating topology patches

Creating block mesh topology

Check topology

	Basic statistics
		Number of internal faces : 0
		Number of boundary faces : 6
		Number of defined boundary faces : 6
		Number of undefined boundary faces : 0
	Checking patch -> block consistency

Creating block offsets
Creating merge list .

Creating polyMesh from blockMesh
Creating patches
Creating cells
Creating points with scale 1
    Block 0 cell size :
        i : 0.5
        j : 0.00921276 .. 0.036851
        k : 2

Detected cyclic patches; ordering boundary faces

Writing polyMesh
----------------
Mesh Information
----------------
  boundingBox: (-1 0 -1) (1 1 1)
  nPoints: 510
  nCells: 200
  nFaces: 854
  nInternalFaces: 346
----------------
Patches
----------------
  patch 0 (start: 346 size: 50) name: inlet
  patch 1 (start: 396 size: 50) name: outlet
  patch 2 (start: 446 size: 4) name: fixedWalls-bottom
  patch 3 (start: 450 size: 4) name: fixedWalls-top
  patch 4 (start: 454 size: 400) name: frontAndBack

End

/*---------------------------------------------------------------------------*\
  =========                 |
  \\      /  F ield         | OpenFOAM: The Open Source CFD Toolbox
   \\    /   O peration     | Website:  https://openfoam.org
    \\  /    A nd           | Version:  10
     \\/     M anipulation  |
\*---------------------------------------------------------------------------*/
Build  : 10-e450dce21ea5
Exec   : simpleFoam
Date   : Jan 16 2023
Time   : 11:44:19
Host   : "w530-R9YK46P"
PID    : 14491
I/O    : uncollated
Case   : /home/jdmezazeron/gitDanielMezaZ/turbulenceVisualized/Data/SimulationFiles/E28_Re29548
nProcs : 1
sigFpe : Enabling floating point exception trapping (FOAM_SIGFPE).
fileModificationChecking : Monitoring run-time modified files using timeStampMaster (fileModificationSkew 10)
allowSystemOperations : Allowing user-supplied system call operations

// * * * * * * * * * * * * * * * * * * * * * * * * * * * * * * * * * * * * * //
Create time

Create mesh for time = 0


SIMPLE: Convergence criteria found
        U: tolerance 0.01
        p: tolerance 0.01
        omega: tolerance 0.0001

Reading field p

Reading field U

Reading/calculating face flux field phi

Selecting viscosity model Newtonian
Selecting turbulence model type RAS
Selecting RAS turbulence model kOmegaSST
Selecting patchDistMethod meshWave
RAS
{
    RASModel        kOmegaSST;
    turbulence      on;
    printCoeffs     on;
    alphaK1         0.85;
    alphaK2         1;
    alphaOmega1     0.5;
    alphaOmega2     0.856;
    gamma1          0.555556;
    gamma2          0.44;
    beta1           0.075;
    beta2           0.0828;
    betaStar        0.09;
    a1              0.31;
    b1              1;
    c1              10;
    F3              false;
}

No MRF models present

--> FOAM Warning : Creating fvModels from "system/fvOptions" rather than constant/fvModels
No fvModels present
--> FOAM Warning : Creating fvConstraints from "system/fvOptions"

Selecting finite volume constraint type meanVelocityForce
    Name: momentumSource
    - selecting all cells
    - selected 200 cell(s) with volume 4
    Initial pressure gradient = 0


Starting time loop

turbulenceFields stressComponents: storing fields:
    R

Time = 1s

smoothSolver:  Solving for Ux, Initial residual = 0, Final residual = 0, No Iterations 0
smoothSolver:  Solving for Uy, Initial residual = 0, Final residual = 0, No Iterations 0
Pressure gradient source: uncorrected Ubar = 0, pressure gradient = 0.975306
GAMG:  Solving for p, Initial residual = 0.999989, Final residual = 0.0312374, No Iterations 3
time step continuity errors : sum local = 8.99096e-17, global = 3.55524e-18, cumulative = 3.55524e-18
Pressure gradient source: uncorrected Ubar = 0.869421, pressure gradient = 0.127354
smoothSolver:  Solving for omega, Initial residual = 0.800237, Final residual = 0.0598891, No Iterations 1
bounding omega, min: -13.2022 max: 255.209 average: 17.2994
smoothSolver:  Solving for k, Initial residual = 1, Final residual = 0.0631121, No Iterations 2
ExecutionTime = 0.012835 s  ClockTime = 0 s

Time = 2s

smoothSolver:  Solving for Ux, Initial residual = 0.110719, Final residual = 0.00928094, No Iterations 5
smoothSolver:  Solving for Uy, Initial residual = 1, Final residual = 0.0823202, No Iterations 2
Pressure gradient source: uncorrected Ubar = 1.10886, pressure gradient = -0.529949
GAMG:  Solving for p, Initial residual = 1, Final residual = 0.0960154, No Iterations 5
time step continuity errors : sum local = 0.0064114, global = -1.51788e-18, cumulative = 2.03736e-18
Pressure gradient source: uncorrected Ubar = 1.02754, pressure gradient = -0.0389101
smoothSolver:  Solving for omega, Initial residual = 0.174026, Final residual = 0.00758248, No Iterations 2
smoothSolver:  Solving for k, Initial residual = 0.267923, Final residual = 0.0223971, No Iterations 3
ExecutionTime = 0.014946 s  ClockTime = 0 s

Time = 3s

smoothSolver:  Solving for Ux, Initial residual = 0.130114, Final residual = 0.0115712, No Iterations 4
smoothSolver:  Solving for Uy, Initial residual = 0.60884, Final residual = 0.0357908, No Iterations 3
Pressure gradient source: uncorrected Ubar = 0.959068, pressure gradient = 0.35961
GAMG:  Solving for p, Initial residual = 0.105546, Final residual = 0.00740189, No Iterations 4
time step continuity errors : sum local = 0.00157725, global = -9.71716e-18, cumulative = -7.67981e-18
Pressure gradient source: uncorrected Ubar = 0.993515, pressure gradient = 0.0242291
smoothSolver:  Solving for omega, Initial residual = 0.0395442, Final residual = 0.00381326, No Iterations 2
smoothSolver:  Solving for k, Initial residual = 0.239181, Final residual = 0.0188264, No Iterations 2
ExecutionTime = 0.017079 s  ClockTime = 0 s

Time = 4s

smoothSolver:  Solving for Ux, Initial residual = 0.0750712, Final residual = 0.00685319, No Iterations 4
smoothSolver:  Solving for Uy, Initial residual = 0.538175, Final residual = 0.0312131, No Iterations 3
Pressure gradient source: uncorrected Ubar = 1.00569, pressure gradient = -0.0342084
GAMG:  Solving for p, Initial residual = 0.0248451, Final residual = 0.00198274, No Iterations 14
time step continuity errors : sum local = 0.00115658, global = 7.31842e-18, cumulative = -3.61388e-19
Pressure gradient source: uncorrected Ubar = 1.00094, pressure gradient = 0.0145815
smoothSolver:  Solving for omega, Initial residual = 0.0167372, Final residual = 0.000684527, No Iterations 3
smoothSolver:  Solving for k, Initial residual = 0.120059, Final residual = 0.0091775, No Iterations 3
ExecutionTime = 0.019484 s  ClockTime = 0 s

Time = 5s

smoothSolver:  Solving for Ux, Initial residual = 0.0474995, Final residual = 0.00340795, No Iterations 5
smoothSolver:  Solving for Uy, Initial residual = 0.599099, Final residual = 0.0360309, No Iterations 3
Pressure gradient source: uncorrected Ubar = 1.00157, pressure gradient = -0.00253699
GAMG:  Solving for p, Initial residual = 0.0349064, Final residual = 0.00294779, No Iterations 8
time step continuity errors : sum local = 0.000811471, global = 3.90821e-18, cumulative = 3.54682e-18
Pressure gradient source: uncorrected Ubar = 1.00026, pressure gradient = 0.011714
smoothSolver:  Solving for omega, Initial residual = 0.00953648, Final residual = 0.000758435, No Iterations 3
smoothSolver:  Solving for k, Initial residual = 0.0946046, Final residual = 0.00547089, No Iterations 4
ExecutionTime = 0.021692 s  ClockTime = 0 s

Time = 6s

smoothSolver:  Solving for Ux, Initial residual = 0.0353433, Final residual = 0.0028003, No Iterations 5
smoothSolver:  Solving for Uy, Initial residual = 0.419104, Final residual = 0.0286618, No Iterations 3
Pressure gradient source: uncorrected Ubar = 1.00158, pressure gradient = -0.00632294
GAMG:  Solving for p, Initial residual = 0.0773424, Final residual = 0.00701257, No Iterations 17
time step continuity errors : sum local = 0.000706445, global = 9.04626e-18, cumulative = 1.25931e-17
Pressure gradient source: uncorrected Ubar = 1.00025, pressure gradient = 0.00890889
smoothSolver:  Solving for omega, Initial residual = 0.00656164, Final residual = 0.000474157, No Iterations 4
smoothSolver:  Solving for k, Initial residual = 0.075925, Final residual = 0.00468054, No Iterations 4
ExecutionTime = 0.024166 s  ClockTime = 0 s

Time = 7s

smoothSolver:  Solving for Ux, Initial residual = 0.0272896, Final residual = 0.00232451, No Iterations 5
smoothSolver:  Solving for Uy, Initial residual = 0.439606, Final residual = 0.0260115, No Iterations 3
Pressure gradient source: uncorrected Ubar = 1.00142, pressure gradient = -0.0081058
GAMG:  Solving for p, Initial residual = 0.0544064, Final residual = 0.00468748, No Iterations 18
time step continuity errors : sum local = 0.000446092, global = 1.4552e-18, cumulative = 1.40483e-17
Pressure gradient source: uncorrected Ubar = 1.00022, pressure gradient = 0.00629505
smoothSolver:  Solving for omega, Initial residual = 0.00449823, Final residual = 0.000276778, No Iterations 4
smoothSolver:  Solving for k, Initial residual = 0.06841, Final residual = 0.00521801, No Iterations 4
ExecutionTime = 0.026706 s  ClockTime = 0 s

Time = 8s

smoothSolver:  Solving for Ux, Initial residual = 0.0215918, Final residual = 0.00199409, No Iterations 5
smoothSolver:  Solving for Uy, Initial residual = 0.42827, Final residual = 0.0254881, No Iterations 3
Pressure gradient source: uncorrected Ubar = 1.00097, pressure gradient = -0.00590074
GAMG:  Solving for p, Initial residual = 0.0271567, Final residual = 0.00260349, No Iterations 8
time step continuity errors : sum local = 0.000406261, global = -1.76183e-18, cumulative = 1.22865e-17
Pressure gradient source: uncorrected Ubar = 1.00015, pressure gradient = 0.00444785
smoothSolver:  Solving for omega, Initial residual = 0.00384417, Final residual = 0.00033442, No Iterations 4
smoothSolver:  Solving for k, Initial residual = 0.061111, Final residual = 0.00490337, No Iterations 4
ExecutionTime = 0.028929 s  ClockTime = 0 s

Time = 9s

smoothSolver:  Solving for Ux, Initial residual = 0.0176882, Final residual = 0.00174528, No Iterations 5
smoothSolver:  Solving for Uy, Initial residual = 0.404941, Final residual = 0.0270082, No Iterations 3
Pressure gradient source: uncorrected Ubar = 1.00062, pressure gradient = -0.00362197
GAMG:  Solving for p, Initial residual = 0.0181242, Final residual = 0.00120411, No Iterations 4
time step continuity errors : sum local = 0.000170688, global = 3.63462e-18, cumulative = 1.59211e-17
Pressure gradient source: uncorrected Ubar = 1.00009, pressure gradient = 0.0032449
smoothSolver:  Solving for omega, Initial residual = 0.00318559, Final residual = 0.00028103, No Iterations 5
smoothSolver:  Solving for k, Initial residual = 0.0606786, Final residual = 0.00499851, No Iterations 5
ExecutionTime = 0.030951 s  ClockTime = 0 s

Time = 10s

smoothSolver:  Solving for Ux, Initial residual = 0.0149132, Final residual = 0.00103652, No Iterations 6
smoothSolver:  Solving for Uy, Initial residual = 0.441702, Final residual = 0.0272172, No Iterations 3
Pressure gradient source: uncorrected Ubar = 1.00039, pressure gradient = -0.00211287
GAMG:  Solving for p, Initial residual = 0.0142221, Final residual = 0.00127194, No Iterations 13
time step continuity errors : sum local = 0.000232809, global = -6.69328e-18, cumulative = 9.22779e-18
Pressure gradient source: uncorrected Ubar = 1.00006, pressure gradient = 0.00245988
smoothSolver:  Solving for omega, Initial residual = 0.00270315, Final residual = 0.00016105, No Iterations 5
smoothSolver:  Solving for k, Initial residual = 0.0522755, Final residual = 0.00393955, No Iterations 5
ExecutionTime = 0.033246 s  ClockTime = 0 s

Time = 11s

smoothSolver:  Solving for Ux, Initial residual = 0.012936, Final residual = 0.000957584, No Iterations 6
smoothSolver:  Solving for Uy, Initial residual = 0.551494, Final residual = 0.0368372, No Iterations 3
Pressure gradient source: uncorrected Ubar = 1.00031, pressure gradient = -0.00196324
GAMG:  Solving for p, Initial residual = 0.0149135, Final residual = 0.00136845, No Iterations 17
time step continuity errors : sum local = 0.000199083, global = -8.53386e-18, cumulative = 6.93935e-19
Pressure gradient source: uncorrected Ubar = 1.00005, pressure gradient = 0.0018027
smoothSolver:  Solving for omega, Initial residual = 0.00217384, Final residual = 0.000202255, No Iterations 4
smoothSolver:  Solving for k, Initial residual = 0.0460211, Final residual = 0.00388832, No Iterations 4
ExecutionTime = 0.035656 s  ClockTime = 0 s

Time = 12s

smoothSolver:  Solving for Ux, Initial residual = 0.0115392, Final residual = 0.000897616, No Iterations 6
smoothSolver:  Solving for Uy, Initial residual = 0.625139, Final residual = 0.0429215, No Iterations 3
Pressure gradient source: uncorrected Ubar = 1.00021, pressure gradient = -0.00131077
GAMG:  Solving for p, Initial residual = 0.0179737, Final residual = 0.00154837, No Iterations 19
time step continuity errors : sum local = 0.000153796, global = -5.71535e-18, cumulative = -5.02142e-18
Pressure gradient source: uncorrected Ubar = 1.00003, pressure gradient = 0.00134786
smoothSolver:  Solving for omega, Initial residual = 0.00196523, Final residual = 0.000154554, No Iterations 4
smoothSolver:  Solving for k, Initial residual = 0.0453853, Final residual = 0.00332456, No Iterations 5
ExecutionTime = 0.038216 s  ClockTime = 0 s

Time = 13s

smoothSolver:  Solving for Ux, Initial residual = 0.0105117, Final residual = 0.000855109, No Iterations 6
smoothSolver:  Solving for Uy, Initial residual = 0.548014, Final residual = 0.0432738, No Iterations 3
Pressure gradient source: uncorrected Ubar = 1.00011, pressure gradient = -0.00030988
GAMG:  Solving for p, Initial residual = 0.0245359, Final residual = 0.00232315, No Iterations 13
time step continuity errors : sum local = 0.000142494, global = -6.58483e-18, cumulative = -1.16063e-17
Pressure gradient source: uncorrected Ubar = 1.00002, pressure gradient = 0.00111002
smoothSolver:  Solving for omega, Initial residual = 0.00176817, Final residual = 0.000126645, No Iterations 5
smoothSolver:  Solving for k, Initial residual = 0.0395813, Final residual = 0.003148, No Iterations 5
ExecutionTime = 0.040616 s  ClockTime = 0 s

Time = 14s

smoothSolver:  Solving for Ux, Initial residual = 0.00967921, Final residual = 0.000818957, No Iterations 6
smoothSolver:  Solving for Uy, Initial residual = 0.390104, Final residual = 0.0336229, No Iterations 3
Pressure gradient source: uncorrected Ubar = 1.00009, pressure gradient = -0.000273295
GAMG:  Solving for p, Initial residual = 0.0383833, Final residual = 0.00366066, No Iterations 14
time step continuity errors : sum local = 0.000113744, global = 1.9378e-18, cumulative = -9.66845e-18
Pressure gradient source: uncorrected Ubar = 1.00001, pressure gradient = 0.000909216
smoothSolver:  Solving for omega, Initial residual = 0.0015296, Final residual = 9.42145e-05, No Iterations 5
smoothSolver:  Solving for k, Initial residual = 0.035672, Final residual = 0.00275507, No Iterations 5
ExecutionTime = 0.043063 s  ClockTime = 0 s

Time = 15s

smoothSolver:  Solving for Ux, Initial residual = 0.00912817, Final residual = 0.000792592, No Iterations 6
smoothSolver:  Solving for Uy, Initial residual = 0.322636, Final residual = 0.02225, No Iterations 3
Pressure gradient source: uncorrected Ubar = 1.00004, pressure gradient = 0.000205888
GAMG:  Solving for p, Initial residual = 0.0794482, Final residual = 0.00672709, No Iterations 14
time step continuity errors : sum local = 7.85687e-05, global = -9.81711e-19, cumulative = -1.06502e-17
Pressure gradient source: uncorrected Ubar = 1.00001, pressure gradient = 0.000813039
smoothSolver:  Solving for omega, Initial residual = 0.00131635, Final residual = 0.000128442, No Iterations 4
smoothSolver:  Solving for k, Initial residual = 0.0295214, Final residual = 0.00204606, No Iterations 5
ExecutionTime = 0.045424 s  ClockTime = 0 s

Time = 16s

smoothSolver:  Solving for Ux, Initial residual = 0.00887737, Final residual = 0.000766092, No Iterations 6
smoothSolver:  Solving for Uy, Initial residual = 0.29438, Final residual = 0.0208341, No Iterations 3
Pressure gradient source: uncorrected Ubar = 1.00002, pressure gradient = 0.000434322
GAMG:  Solving for p, Initial residual = 0.032301, Final residual = 0.00287115, No Iterations 15
time step continuity errors : sum local = 5.86959e-05, global = 2.17719e-18, cumulative = -8.47297e-18
Pressure gradient source: uncorrected Ubar = 1, pressure gradient = 0.000763207
smoothSolver:  Solving for omega, Initial residual = 0.00126445, Final residual = 0.000122136, No Iterations 4
smoothSolver:  Solving for k, Initial residual = 0.027904, Final residual = 0.00188582, No Iterations 5
ExecutionTime = 0.047796 s  ClockTime = 0 s

Time = 17s

smoothSolver:  Solving for Ux, Initial residual = 0.00872481, Final residual = 0.000740155, No Iterations 6
smoothSolver:  Solving for Uy, Initial residual = 0.298928, Final residual = 0.025907, No Iterations 3
Pressure gradient source: uncorrected Ubar = 1.00002, pressure gradient = 0.000472666
GAMG:  Solving for p, Initial residual = 0.0231652, Final residual = 0.00177702, No Iterations 12
time step continuity errors : sum local = 4.69664e-05, global = 4.46889e-18, cumulative = -4.00408e-18
Pressure gradient source: uncorrected Ubar = 1, pressure gradient = 0.000724163
smoothSolver:  Solving for omega, Initial residual = 0.00122347, Final residual = 8.52124e-05, No Iterations 5
smoothSolver:  Solving for k, Initial residual = 0.0240896, Final residual = 0.00162716, No Iterations 5
ExecutionTime = 0.050189 s  ClockTime = 0 s

Time = 18s

smoothSolver:  Solving for Ux, Initial residual = 0.00856752, Final residual = 0.000716327, No Iterations 6
smoothSolver:  Solving for Uy, Initial residual = 0.383321, Final residual = 0.0301109, No Iterations 3
Pressure gradient source: uncorrected Ubar = 1.00001, pressure gradient = 0.000619216
GAMG:  Solving for p, Initial residual = 0.021924, Final residual = 0.00208231, No Iterations 13
time step continuity errors : sum local = 4.88772e-05, global = 1.2229e-20, cumulative = -3.99185e-18
Pressure gradient source: uncorrected Ubar = 1, pressure gradient = 0.000711571
smoothSolver:  Solving for omega, Initial residual = 0.00110093, Final residual = 9.442e-05, No Iterations 4
smoothSolver:  Solving for k, Initial residual = 0.023032, Final residual = 0.00167793, No Iterations 5
ExecutionTime = 0.05268 s  ClockTime = 0 s

Time = 19s

smoothSolver:  Solving for Ux, Initial residual = 0.00844448, Final residual = 0.000697839, No Iterations 6
smoothSolver:  Solving for Uy, Initial residual = 0.422595, Final residual = 0.0318726, No Iterations 3
Pressure gradient source: uncorrected Ubar = 0.999983, pressure gradient = 0.00101357
GAMG:  Solving for p, Initial residual = 0.0241834, Final residual = 0.00210291, No Iterations 15
time step continuity errors : sum local = 4.18097e-05, global = 3.19226e-18, cumulative = -7.99595e-19
Pressure gradient source: uncorrected Ubar = 0.999997, pressure gradient = 0.000764083
smoothSolver:  Solving for omega, Initial residual = 0.00109985, Final residual = 6.67413e-05, No Iterations 5
smoothSolver:  Solving for k, Initial residual = 0.0191449, Final residual = 0.00130459, No Iterations 5
ExecutionTime = 0.055133 s  ClockTime = 0 s

Time = 20s

smoothSolver:  Solving for Ux, Initial residual = 0.0083291, Final residual = 0.000680192, No Iterations 6
smoothSolver:  Solving for Uy, Initial residual = 0.445672, Final residual = 0.0385647, No Iterations 3
Pressure gradient source: uncorrected Ubar = 0.999985, pressure gradient = 0.00104955
GAMG:  Solving for p, Initial residual = 0.0264497, Final residual = 0.00264175, No Iterations 15
time step continuity errors : sum local = 4.21155e-05, global = -4.27921e-18, cumulative = -5.07881e-18
Pressure gradient source: uncorrected Ubar = 0.999997, pressure gradient = 0.000810812
smoothSolver:  Solving for omega, Initial residual = 0.00105841, Final residual = 0.000102538, No Iterations 4
smoothSolver:  Solving for k, Initial residual = 0.0172579, Final residual = 0.0010539, No Iterations 5
ExecutionTime = 0.057517 s  ClockTime = 0 s

Time = 21s

smoothSolver:  Solving for Ux, Initial residual = 0.00821668, Final residual = 0.000664562, No Iterations 6
smoothSolver:  Solving for Uy, Initial residual = 0.437533, Final residual = 0.0366187, No Iterations 3
Pressure gradient source: uncorrected Ubar = 0.99998, pressure gradient = 0.00119116
GAMG:  Solving for p, Initial residual = 0.0287512, Final residual = 0.00252634, No Iterations 20
time step continuity errors : sum local = 2.85692e-05, global = -6.88251e-18, cumulative = -1.19613e-17
Pressure gradient source: uncorrected Ubar = 0.999997, pressure gradient = 0.00087047
smoothSolver:  Solving for omega, Initial residual = 0.00102259, Final residual = 9.15589e-05, No Iterations 4
smoothSolver:  Solving for k, Initial residual = 0.0169567, Final residual = 0.00133546, No Iterations 5
ExecutionTime = 0.060034 s  ClockTime = 0 s

Time = 22s

smoothSolver:  Solving for Ux, Initial residual = 0.00811138, Final residual = 0.000650045, No Iterations 6
smoothSolver:  Solving for Uy, Initial residual = 0.459477, Final residual = 0.033895, No Iterations 3
Pressure gradient source: uncorrected Ubar = 0.999974, pressure gradient = 0.00138634
GAMG:  Solving for p, Initial residual = 0.0282186, Final residual = 0.00265551, No Iterations 16
time step continuity errors : sum local = 3.06321e-05, global = 2.92375e-18, cumulative = -9.03757e-18
Pressure gradient source: uncorrected Ubar = 0.999996, pressure gradient = 0.00095066
smoothSolver:  Solving for omega, Initial residual = 0.001029, Final residual = 6.38016e-05, No Iterations 5
smoothSolver:  Solving for k, Initial residual = 0.0155287, Final residual = 0.000972487, No Iterations 5
ExecutionTime = 0.062445 s  ClockTime = 0 s

Time = 23s

smoothSolver:  Solving for Ux, Initial residual = 0.00800907, Final residual = 0.000636146, No Iterations 6
smoothSolver:  Solving for Uy, Initial residual = 0.4638, Final residual = 0.0394107, No Iterations 3
Pressure gradient source: uncorrected Ubar = 0.999974, pressure gradient = 0.00146979
GAMG:  Solving for p, Initial residual = 0.027969, Final residual = 0.00255876, No Iterations 17
time step continuity errors : sum local = 2.35236e-05, global = -9.64347e-19, cumulative = -1.00019e-17
Pressure gradient source: uncorrected Ubar = 0.999996, pressure gradient = 0.00102803
smoothSolver:  Solving for omega, Initial residual = 0.0010013, Final residual = 6.95559e-05, No Iterations 5
smoothSolver:  Solving for k, Initial residual = 0.0150015, Final residual = 0.000990608, No Iterations 5
ExecutionTime = 0.06488 s  ClockTime = 0 s

Time = 24s

smoothSolver:  Solving for Ux, Initial residual = 0.00788971, Final residual = 0.000621196, No Iterations 6
smoothSolver:  Solving for Uy, Initial residual = 0.45672, Final residual = 0.0402266, No Iterations 3
Pressure gradient source: uncorrected Ubar = 0.99998, pressure gradient = 0.00144592
GAMG:  Solving for p, Initial residual = 0.0242214, Final residual = 0.00232728, No Iterations 12
time step continuity errors : sum local = 1.99567e-05, global = -9.35586e-18, cumulative = -1.93578e-17
Pressure gradient source: uncorrected Ubar = 0.999997, pressure gradient = 0.00108498
smoothSolver:  Solving for omega, Initial residual = 0.00100408, Final residual = 7.42884e-05, No Iterations 5
smoothSolver:  Solving for k, Initial residual = 0.0144392, Final residual = 0.00125139, No Iterations 5
ExecutionTime = 0.067174 s  ClockTime = 0 s

Time = 25s

smoothSolver:  Solving for Ux, Initial residual = 0.00776562, Final residual = 0.000606436, No Iterations 6
smoothSolver:  Solving for Uy, Initial residual = 0.420268, Final residual = 0.0340062, No Iterations 3
Pressure gradient source: uncorrected Ubar = 0.999979, pressure gradient = 0.00151732
GAMG:  Solving for p, Initial residual = 0.0207734, Final residual = 0.00201738, No Iterations 9
time step continuity errors : sum local = 1.41863e-05, global = 1.96475e-18, cumulative = -1.7393e-17
Pressure gradient source: uncorrected Ubar = 0.999997, pressure gradient = 0.00114081
smoothSolver:  Solving for omega, Initial residual = 0.000952093, Final residual = 6.4157e-05, No Iterations 5
smoothSolver:  Solving for k, Initial residual = 0.0128397, Final residual = 0.000852268, No Iterations 5
ExecutionTime = 0.069468 s  ClockTime = 0 s

Time = 26s

smoothSolver:  Solving for Ux, Initial residual = 0.00766227, Final residual = 0.000593649, No Iterations 6
smoothSolver:  Solving for Uy, Initial residual = 0.297549, Final residual = 0.0230814, No Iterations 3
Pressure gradient source: uncorrected Ubar = 0.999977, pressure gradient = 0.00162739
GAMG:  Solving for p, Initial residual = 0.0173021, Final residual = 0.00142087, No Iterations 3
time step continuity errors : sum local = 1.09079e-05, global = 5.95646e-18, cumulative = -1.14366e-17
Pressure gradient source: uncorrected Ubar = 0.999997, pressure gradient = 0.00120276
smoothSolver:  Solving for omega, Initial residual = 0.00090293, Final residual = 7.583e-05, No Iterations 4
smoothSolver:  Solving for k, Initial residual = 0.0127171, Final residual = 0.000869442, No Iterations 5
ExecutionTime = 0.0715 s  ClockTime = 0 s

Time = 27s

smoothSolver:  Solving for Ux, Initial residual = 0.00757612, Final residual = 0.000582682, No Iterations 6
smoothSolver:  Solving for Uy, Initial residual = 0.212946, Final residual = 0.0192905, No Iterations 3
Pressure gradient source: uncorrected Ubar = 0.999971, pressure gradient = 0.00183982
GAMG:  Solving for p, Initial residual = 0.0165498, Final residual = 0.000660245, No Iterations 3
time step continuity errors : sum local = 4.37062e-06, global = 1.15416e-17, cumulative = 1.05042e-19
Pressure gradient source: uncorrected Ubar = 0.999996, pressure gradient = 0.001288
smoothSolver:  Solving for omega, Initial residual = 0.000925915, Final residual = 6.28169e-05, No Iterations 5
smoothSolver:  Solving for k, Initial residual = 0.0120771, Final residual = 0.000947059, No Iterations 5
ExecutionTime = 0.07355 s  ClockTime = 0 s

Time = 28s

smoothSolver:  Solving for Ux, Initial residual = 0.00746883, Final residual = 0.000570332, No Iterations 6
smoothSolver:  Solving for Uy, Initial residual = 0.175783, Final residual = 0.015573, No Iterations 3
Pressure gradient source: uncorrected Ubar = 0.99998, pressure gradient = 0.00174232
GAMG:  Solving for p, Initial residual = 0.017717, Final residual = 0.00162448, No Iterations 3
time step continuity errors : sum local = 9.38849e-06, global = -1.58872e-19, cumulative = -5.38292e-20
Pressure gradient source: uncorrected Ubar = 0.999998, pressure gradient = 0.00133854
smoothSolver:  Solving for omega, Initial residual = 0.000923012, Final residual = 6.79999e-05, No Iterations 5
smoothSolver:  Solving for k, Initial residual = 0.0111309, Final residual = 0.00080348, No Iterations 5
ExecutionTime = 0.075564 s  ClockTime = 0 s

Time = 29s

smoothSolver:  Solving for Ux, Initial residual = 0.00736888, Final residual = 0.000558636, No Iterations 6
smoothSolver:  Solving for Uy, Initial residual = 0.174653, Final residual = 0.0160853, No Iterations 3
Pressure gradient source: uncorrected Ubar = 0.999978, pressure gradient = 0.00183573
GAMG:  Solving for p, Initial residual = 0.0193234, Final residual = 0.00190011, No Iterations 12
time step continuity errors : sum local = 9.7463e-06, global = -2.48051e-18, cumulative = -2.53434e-18
Pressure gradient source: uncorrected Ubar = 0.999998, pressure gradient = 0.00139359
smoothSolver:  Solving for omega, Initial residual = 0.000889183, Final residual = 6.44348e-05, No Iterations 5
smoothSolver:  Solving for k, Initial residual = 0.0111147, Final residual = 0.000881565, No Iterations 5
ExecutionTime = 0.077836 s  ClockTime = 0 s

Time = 30s

smoothSolver:  Solving for Ux, Initial residual = 0.00727553, Final residual = 0.00054769, No Iterations 6
smoothSolver:  Solving for Uy, Initial residual = 0.173285, Final residual = 0.010165, No Iterations 4
Pressure gradient source: uncorrected Ubar = 0.999979, pressure gradient = 0.0018903
GAMG:  Solving for p, Initial residual = 0.0213439, Final residual = 0.00188785, No Iterations 17
time step continuity errors : sum local = 7.86332e-06, global = -1.19008e-18, cumulative = -3.72442e-18
Pressure gradient source: uncorrected Ubar = 0.999998, pressure gradient = 0.00144564
smoothSolver:  Solving for omega, Initial residual = 0.00084903, Final residual = 7.47233e-05, No Iterations 4
smoothSolver:  Solving for k, Initial residual = 0.00995979, Final residual = 0.00077807, No Iterations 5
ExecutionTime = 0.080213 s  ClockTime = 0 s

Time = 31s

smoothSolver:  Solving for Ux, Initial residual = 0.00719416, Final residual = 0.000537984, No Iterations 6
smoothSolver:  Solving for Uy, Initial residual = 0.163426, Final residual = 0.0155005, No Iterations 3
Pressure gradient source: uncorrected Ubar = 0.999979, pressure gradient = 0.00194326
GAMG:  Solving for p, Initial residual = 0.0310691, Final residual = 0.00290329, No Iterations 15
time step continuity errors : sum local = 7.35445e-06, global = 5.96184e-18, cumulative = 2.23742e-18
Pressure gradient source: uncorrected Ubar = 0.999998, pressure gradient = 0.00149536
smoothSolver:  Solving for omega, Initial residual = 0.000862915, Final residual = 5.4326e-05, No Iterations 5
smoothSolver:  Solving for k, Initial residual = 0.00984301, Final residual = 0.000898221, No Iterations 5
ExecutionTime = 0.08262 s  ClockTime = 0 s

Time = 32s

smoothSolver:  Solving for Ux, Initial residual = 0.00709453, Final residual = 0.00052684, No Iterations 6
smoothSolver:  Solving for Uy, Initial residual = 0.170896, Final residual = 0.0152349, No Iterations 3
Pressure gradient source: uncorrected Ubar = 0.999986, pressure gradient = 0.00183413
GAMG:  Solving for p, Initial residual = 0.0575611, Final residual = 0.00565991, No Iterations 16
time step continuity errors : sum local = 6.22498e-06, global = -1.58117e-18, cumulative = 6.56249e-19
Pressure gradient source: uncorrected Ubar = 0.999999, pressure gradient = 0.00151481
smoothSolver:  Solving for omega, Initial residual = 0.000830056, Final residual = 5.06289e-05, No Iterations 5
smoothSolver:  Solving for k, Initial residual = 0.00867088, Final residual = 0.000624007, No Iterations 5
ExecutionTime = 0.085142 s  ClockTime = 0 s

Time = 33s

smoothSolver:  Solving for Ux, Initial residual = 0.00702393, Final residual = 0.00051881, No Iterations 6
smoothSolver:  Solving for Uy, Initial residual = 0.159962, Final residual = 0.0142435, No Iterations 3
Pressure gradient source: uncorrected Ubar = 0.999976, pressure gradient = 0.00210296
GAMG:  Solving for p, Initial residual = 0.0349505, Final residual = 0.00320392, No Iterations 15
time step continuity errors : sum local = 6.31884e-06, global = 4.94463e-18, cumulative = 5.60088e-18
Pressure gradient source: uncorrected Ubar = 0.999998, pressure gradient = 0.00157607
smoothSolver:  Solving for omega, Initial residual = 0.000827577, Final residual = 5.38337e-05, No Iterations 5
smoothSolver:  Solving for k, Initial residual = 0.00808947, Final residual = 0.000631667, No Iterations 5
ExecutionTime = 0.087548 s  ClockTime = 0 s

Time = 34s

smoothSolver:  Solving for Ux, Initial residual = 0.00695054, Final residual = 0.000510624, No Iterations 6
smoothSolver:  Solving for Uy, Initial residual = 0.14296, Final residual = 0.0136933, No Iterations 3
Pressure gradient source: uncorrected Ubar = 0.99998, pressure gradient = 0.00206405
GAMG:  Solving for p, Initial residual = 0.0221126, Final residual = 0.00196241, No Iterations 16
time step continuity errors : sum local = 4.43536e-06, global = 9.31949e-18, cumulative = 1.49204e-17
Pressure gradient source: uncorrected Ubar = 0.999998, pressure gradient = 0.00161744
smoothSolver:  Solving for omega, Initial residual = 0.000783872, Final residual = 7.43041e-05, No Iterations 4
smoothSolver:  Solving for k, Initial residual = 0.00768087, Final residual = 0.000581172, No Iterations 5
ExecutionTime = 0.089942 s  ClockTime = 0 s

Time = 35s

smoothSolver:  Solving for Ux, Initial residual = 0.00689326, Final residual = 0.000504255, No Iterations 6
smoothSolver:  Solving for Uy, Initial residual = 0.162757, Final residual = 0.014713, No Iterations 3
Pressure gradient source: uncorrected Ubar = 0.999976, pressure gradient = 0.00222316
GAMG:  Solving for p, Initial residual = 0.0160013, Final residual = 0.00147545, No Iterations 10
time step continuity errors : sum local = 4.01434e-06, global = -3.21596e-18, cumulative = 1.17044e-17
Pressure gradient source: uncorrected Ubar = 0.999998, pressure gradient = 0.00167806
smoothSolver:  Solving for omega, Initial residual = 0.000803511, Final residual = 5.22338e-05, No Iterations 5
smoothSolver:  Solving for k, Initial residual = 0.00716266, Final residual = 0.00067488, No Iterations 5
ExecutionTime = 0.092124 s  ClockTime = 0 s

Time = 36s

smoothSolver:  Solving for Ux, Initial residual = 0.00681337, Final residual = 0.00049551, No Iterations 6
smoothSolver:  Solving for Uy, Initial residual = 0.148713, Final residual = 0.0120304, No Iterations 3
Pressure gradient source: uncorrected Ubar = 0.999988, pressure gradient = 0.00198508
GAMG:  Solving for p, Initial residual = 0.0132724, Final residual = 0.00132099, No Iterations 6
time step continuity errors : sum local = 3.62312e-06, global = -8.24505e-18, cumulative = 3.45937e-18
Pressure gradient source: uncorrected Ubar = 1, pressure gradient = 0.00168382
smoothSolver:  Solving for omega, Initial residual = 0.000808913, Final residual = 6.39064e-05, No Iterations 5
smoothSolver:  Solving for k, Initial residual = 0.00673723, Final residual = 0.000649196, No Iterations 5
ExecutionTime = 0.094194 s  ClockTime = 0 s

Time = 37s

smoothSolver:  Solving for Ux, Initial residual = 0.00674519, Final residual = 0.00048779, No Iterations 6
smoothSolver:  Solving for Uy, Initial residual = 0.141779, Final residual = 0.0121222, No Iterations 3
Pressure gradient source: uncorrected Ubar = 0.999984, pressure gradient = 0.00210822
GAMG:  Solving for p, Initial residual = 0.0122518, Final residual = 0.000999329, No Iterations 3
time step continuity errors : sum local = 2.52238e-06, global = -8.94075e-18, cumulative = -5.48138e-18
Pressure gradient source: uncorrected Ubar = 0.999999, pressure gradient = 0.00170845
smoothSolver:  Solving for omega, Initial residual = 0.000772087, Final residual = 6.19215e-05, No Iterations 5
smoothSolver:  Solving for k, Initial residual = 0.00668023, Final residual = 0.000431901, No Iterations 6
ExecutionTime = 0.096251 s  ClockTime = 0 s

Time = 38s

smoothSolver:  Solving for Ux, Initial residual = 0.00668201, Final residual = 0.000480849, No Iterations 6
smoothSolver:  Solving for Uy, Initial residual = 0.117769, Final residual = 0.0103736, No Iterations 3
Pressure gradient source: uncorrected Ubar = 0.999984, pressure gradient = 0.00212471
GAMG:  Solving for p, Initial residual = 0.0118086, Final residual = 0.000681385, No Iterations 2
time step continuity errors : sum local = 1.45396e-06, global = -4.00853e-18, cumulative = -9.48992e-18
Pressure gradient source: uncorrected Ubar = 0.999999, pressure gradient = 0.00172998
smoothSolver:  Solving for omega, Initial residual = 0.000737292, Final residual = 5.5391e-05, No Iterations 5
smoothSolver:  Solving for k, Initial residual = 0.0060156, Final residual = 0.000452703, No Iterations 5
ExecutionTime = 0.098274 s  ClockTime = 0 s

Time = 39s

smoothSolver:  Solving for Ux, Initial residual = 0.00663769, Final residual = 0.000476107, No Iterations 6
smoothSolver:  Solving for Uy, Initial residual = 0.112166, Final residual = 0.00648913, No Iterations 4
Pressure gradient source: uncorrected Ubar = 0.999978, pressure gradient = 0.00231028
GAMG:  Solving for p, Initial residual = 0.0133913, Final residual = 0.00084293, No Iterations 3
time step continuity errors : sum local = 1.75955e-06, global = 2.79526e-18, cumulative = -6.69465e-18
Pressure gradient source: uncorrected Ubar = 0.999998, pressure gradient = 0.00177952
smoothSolver:  Solving for omega, Initial residual = 0.000715837, Final residual = 4.75186e-05, No Iterations 5
smoothSolver:  Solving for k, Initial residual = 0.00590244, Final residual = 0.000409095, No Iterations 5
ExecutionTime = 0.10041 s  ClockTime = 0 s

Time = 40s

smoothSolver:  Solving for Ux, Initial residual = 0.0065868, Final residual = 0.000470868, No Iterations 6
smoothSolver:  Solving for Uy, Initial residual = 0.112231, Final residual = 0.00696554, No Iterations 4
Pressure gradient source: uncorrected Ubar = 0.999982, pressure gradient = 0.00226187
GAMG:  Solving for p, Initial residual = 0.014871, Final residual = 0.00147476, No Iterations 3
time step continuity errors : sum local = 2.72206e-06, global = -1.92091e-18, cumulative = -8.61556e-18
Pressure gradient source: uncorrected Ubar = 0.999999, pressure gradient = 0.00181047
smoothSolver:  Solving for omega, Initial residual = 0.000707522, Final residual = 4.77905e-05, No Iterations 5
smoothSolver:  Solving for k, Initial residual = 0.00596587, Final residual = 0.000443522, No Iterations 5
ExecutionTime = 0.102492 s  ClockTime = 0 s

Time = 41s

smoothSolver:  Solving for Ux, Initial residual = 0.00654137, Final residual = 0.000466208, No Iterations 6
smoothSolver:  Solving for Uy, Initial residual = 0.0885289, Final residual = 0.0054178, No Iterations 4
Pressure gradient source: uncorrected Ubar = 0.999981, pressure gradient = 0.00232825
GAMG:  Solving for p, Initial residual = 0.0160017, Final residual = 0.00159544, No Iterations 12
time step continuity errors : sum local = 2.77669e-06, global = 5.91348e-18, cumulative = -2.70207e-18
Pressure gradient source: uncorrected Ubar = 0.999999, pressure gradient = 0.00184651
smoothSolver:  Solving for omega, Initial residual = 0.000707643, Final residual = 5.80894e-05, No Iterations 5
smoothSolver:  Solving for k, Initial residual = 0.00588591, Final residual = 0.000436574, No Iterations 5
ExecutionTime = 0.104789 s  ClockTime = 0 s

Time = 42s

smoothSolver:  Solving for Ux, Initial residual = 0.0064992, Final residual = 0.000461798, No Iterations 6
smoothSolver:  Solving for Uy, Initial residual = 0.0600947, Final residual = 0.00581239, No Iterations 3
Pressure gradient source: uncorrected Ubar = 0.999983, pressure gradient = 0.00231418
GAMG:  Solving for p, Initial residual = 0.018331, Final residual = 0.00176314, No Iterations 12
time step continuity errors : sum local = 2.07933e-06, global = 4.60569e-18, cumulative = 1.90361e-18
Pressure gradient source: uncorrected Ubar = 0.999999, pressure gradient = 0.00187248
smoothSolver:  Solving for omega, Initial residual = 0.000677079, Final residual = 4.99795e-05, No Iterations 5
smoothSolver:  Solving for k, Initial residual = 0.00577821, Final residual = 0.000402627, No Iterations 5
ExecutionTime = 0.107007 s  ClockTime = 0 s

Time = 43s

smoothSolver:  Solving for Ux, Initial residual = 0.00646584, Final residual = 0.000458123, No Iterations 6
smoothSolver:  Solving for Uy, Initial residual = 0.0518027, Final residual = 0.00419138, No Iterations 3
Pressure gradient source: uncorrected Ubar = 0.999982, pressure gradient = 0.00238205
GAMG:  Solving for p, Initial residual = 0.0221241, Final residual = 0.00210019, No Iterations 9
time step continuity errors : sum local = 1.75631e-06, global = 1.20321e-18, cumulative = 3.10682e-18
Pressure gradient source: uncorrected Ubar = 0.999999, pressure gradient = 0.00190495
smoothSolver:  Solving for omega, Initial residual = 0.000645802, Final residual = 4.28492e-05, No Iterations 5
smoothSolver:  Solving for k, Initial residual = 0.00600557, Final residual = 0.000550768, No Iterations 5
ExecutionTime = 0.109177 s  ClockTime = 0 s

Time = 44s

smoothSolver:  Solving for Ux, Initial residual = 0.00642625, Final residual = 0.000454029, No Iterations 6
smoothSolver:  Solving for Uy, Initial residual = 0.0458068, Final residual = 0.0036185, No Iterations 3
Pressure gradient source: uncorrected Ubar = 0.999984, pressure gradient = 0.00235588
GAMG:  Solving for p, Initial residual = 0.0251484, Final residual = 0.00220412, No Iterations 11
time step continuity errors : sum local = 1.37468e-06, global = -7.31957e-18, cumulative = -4.21274e-18
Pressure gradient source: uncorrected Ubar = 0.999999, pressure gradient = 0.0019262
smoothSolver:  Solving for omega, Initial residual = 0.000653515, Final residual = 5.09021e-05, No Iterations 5
smoothSolver:  Solving for k, Initial residual = 0.00586209, Final residual = 0.000478427, No Iterations 5
ExecutionTime = 0.11147 s  ClockTime = 0 s

Time = 45s

smoothSolver:  Solving for Ux, Initial residual = 0.00639404, Final residual = 0.000450643, No Iterations 6
smoothSolver:  Solving for Uy, Initial residual = 0.0517446, Final residual = 0.00425113, No Iterations 3
Pressure gradient source: uncorrected Ubar = 0.999983, pressure gradient = 0.00242331
GAMG:  Solving for p, Initial residual = 0.0252905, Final residual = 0.00251373, No Iterations 11
time step continuity errors : sum local = 1.44891e-06, global = -2.86626e-18, cumulative = -7.079e-18
Pressure gradient source: uncorrected Ubar = 0.999999, pressure gradient = 0.00195487
smoothSolver:  Solving for omega, Initial residual = 0.000643028, Final residual = 4.79398e-05, No Iterations 5
smoothSolver:  Solving for k, Initial residual = 0.00589934, Final residual = 0.00051668, No Iterations 5
ExecutionTime = 0.113735 s  ClockTime = 0 s

Time = 46s

smoothSolver:  Solving for Ux, Initial residual = 0.0063596, Final residual = 0.000446919, No Iterations 6
smoothSolver:  Solving for Uy, Initial residual = 0.0526397, Final residual = 0.00505413, No Iterations 3
Pressure gradient source: uncorrected Ubar = 0.999985, pressure gradient = 0.00237944
GAMG:  Solving for p, Initial residual = 0.0235866, Final residual = 0.00224634, No Iterations 14
time step continuity errors : sum local = 1.16334e-06, global = 9.70663e-18, cumulative = 2.62763e-18
Pressure gradient source: uncorrected Ubar = 0.999999, pressure gradient = 0.00196968
smoothSolver:  Solving for omega, Initial residual = 0.000622097, Final residual = 4.51392e-05, No Iterations 5
smoothSolver:  Solving for k, Initial residual = 0.0061369, Final residual = 0.000489113, No Iterations 5
ExecutionTime = 0.116063 s  ClockTime = 0 s

Time = 47s

smoothSolver:  Solving for Ux, Initial residual = 0.00632952, Final residual = 0.000443779, No Iterations 6
smoothSolver:  Solving for Uy, Initial residual = 0.055907, Final residual = 0.00295872, No Iterations 4
Pressure gradient source: uncorrected Ubar = 0.999984, pressure gradient = 0.00245211
GAMG:  Solving for p, Initial residual = 0.0236167, Final residual = 0.00223918, No Iterations 7
time step continuity errors : sum local = 1.35117e-06, global = 3.30147e-18, cumulative = 5.9291e-18
Pressure gradient source: uncorrected Ubar = 0.999999, pressure gradient = 0.00199424
smoothSolver:  Solving for omega, Initial residual = 0.000584078, Final residual = 3.82736e-05, No Iterations 5
smoothSolver:  Solving for k, Initial residual = 0.00629897, Final residual = 0.000600533, No Iterations 5
ExecutionTime = 0.118288 s  ClockTime = 0 s

Time = 48s

smoothSolver:  Solving for Ux, Initial residual = 0.00630532, Final residual = 0.0004413, No Iterations 6
smoothSolver:  Solving for Uy, Initial residual = 0.0618289, Final residual = 0.00372745, No Iterations 4
Pressure gradient source: uncorrected Ubar = 0.999983, pressure gradient = 0.00249035
GAMG:  Solving for p, Initial residual = 0.0234888, Final residual = 0.00227951, No Iterations 7
time step continuity errors : sum local = 1.32588e-06, global = -1.67633e-18, cumulative = 4.25277e-18
Pressure gradient source: uncorrected Ubar = 0.999999, pressure gradient = 0.00202083
smoothSolver:  Solving for omega, Initial residual = 0.000594961, Final residual = 4.68721e-05, No Iterations 5
smoothSolver:  Solving for k, Initial residual = 0.00647015, Final residual = 0.000423128, No Iterations 6
ExecutionTime = 0.12047 s  ClockTime = 0 s

Time = 49s

smoothSolver:  Solving for Ux, Initial residual = 0.00627792, Final residual = 0.000438557, No Iterations 6
smoothSolver:  Solving for Uy, Initial residual = 0.0479976, Final residual = 0.00283154, No Iterations 4
Pressure gradient source: uncorrected Ubar = 0.999984, pressure gradient = 0.00248468
GAMG:  Solving for p, Initial residual = 0.0188175, Final residual = 0.00155009, No Iterations 14
time step continuity errors : sum local = 9.92855e-07, global = -8.58404e-18, cumulative = -4.33127e-18
Pressure gradient source: uncorrected Ubar = 0.999999, pressure gradient = 0.00204108
smoothSolver:  Solving for omega, Initial residual = 0.000592204, Final residual = 4.82866e-05, No Iterations 5
smoothSolver:  Solving for k, Initial residual = 0.0065126, Final residual = 0.000602304, No Iterations 5
ExecutionTime = 0.122787 s  ClockTime = 0 s

Time = 50s

smoothSolver:  Solving for Ux, Initial residual = 0.00625301, Final residual = 0.000435918, No Iterations 6
smoothSolver:  Solving for Uy, Initial residual = 0.0354075, Final residual = 0.00320824, No Iterations 3
Pressure gradient source: uncorrected Ubar = 0.999985, pressure gradient = 0.00249527
GAMG:  Solving for p, Initial residual = 0.0156229, Final residual = 0.00140054, No Iterations 12
time step continuity errors : sum local = 8.00702e-07, global = 2.27575e-18, cumulative = -2.05552e-18
Pressure gradient source: uncorrected Ubar = 0.999999, pressure gradient = 0.00205902
smoothSolver:  Solving for omega, Initial residual = 0.000578543, Final residual = 4.64479e-05, No Iterations 5
smoothSolver:  Solving for k, Initial residual = 0.00651181, Final residual = 0.000541858, No Iterations 5
ExecutionTime = 0.125027 s  ClockTime = 0 s

Time = 51s

smoothSolver:  Solving for Ux, Initial residual = 0.00623053, Final residual = 0.000433751, No Iterations 6
smoothSolver:  Solving for Uy, Initial residual = 0.032473, Final residual = 0.00285211, No Iterations 3
Pressure gradient source: uncorrected Ubar = 0.999984, pressure gradient = 0.00253172
GAMG:  Solving for p, Initial residual = 0.0176875, Final residual = 0.00168214, No Iterations 3
time step continuity errors : sum local = 8.51634e-07, global = -5.48e-18, cumulative = -7.53552e-18
Pressure gradient source: uncorrected Ubar = 0.999999, pressure gradient = 0.0020798
smoothSolver:  Solving for omega, Initial residual = 0.000545744, Final residual = 3.90278e-05, No Iterations 5
smoothSolver:  Solving for k, Initial residual = 0.00687574, Final residual = 0.000681262, No Iterations 5
ExecutionTime = 0.126974 s  ClockTime = 0 s

Time = 52s

smoothSolver:  Solving for Ux, Initial residual = 0.00621451, Final residual = 0.000432139, No Iterations 6
smoothSolver:  Solving for Uy, Initial residual = 0.0522457, Final residual = 0.00303947, No Iterations 4
Pressure gradient source: uncorrected Ubar = 0.999984, pressure gradient = 0.0025541
GAMG:  Solving for p, Initial residual = 0.0269664, Final residual = 0.00219059, No Iterations 3
time step continuity errors : sum local = 1.1062e-06, global = -1.26565e-18, cumulative = -8.80117e-18
Pressure gradient source: uncorrected Ubar = 0.999999, pressure gradient = 0.00210047
smoothSolver:  Solving for omega, Initial residual = 0.000534599, Final residual = 3.45191e-05, No Iterations 5
smoothSolver:  Solving for k, Initial residual = 0.00711414, Final residual = 0.000676173, No Iterations 5
ExecutionTime = 0.129009 s  ClockTime = 0 s

Time = 53s

smoothSolver:  Solving for Ux, Initial residual = 0.00619963, Final residual = 0.000430447, No Iterations 6
smoothSolver:  Solving for Uy, Initial residual = 0.0597038, Final residual = 0.00370112, No Iterations 4
Pressure gradient source: uncorrected Ubar = 0.999985, pressure gradient = 0.00255405
GAMG:  Solving for p, Initial residual = 0.0276018, Final residual = 0.00238787, No Iterations 4
time step continuity errors : sum local = 1.33856e-06, global = -5.9734e-18, cumulative = -1.47746e-17
Pressure gradient source: uncorrected Ubar = 0.999999, pressure gradient = 0.00211709
smoothSolver:  Solving for omega, Initial residual = 0.00052444, Final residual = 3.3588e-05, No Iterations 5
smoothSolver:  Solving for k, Initial residual = 0.00703193, Final residual = 0.000631575, No Iterations 5
ExecutionTime = 0.131064 s  ClockTime = 0 s

Time = 54s

smoothSolver:  Solving for Ux, Initial residual = 0.00618848, Final residual = 0.000429155, No Iterations 6
smoothSolver:  Solving for Uy, Initial residual = 0.0551611, Final residual = 0.0030274, No Iterations 4
Pressure gradient source: uncorrected Ubar = 0.999984, pressure gradient = 0.00260556
GAMG:  Solving for p, Initial residual = 0.0230169, Final residual = 0.00199409, No Iterations 8
time step continuity errors : sum local = 9.96704e-07, global = -6.03419e-18, cumulative = -2.08088e-17
Pressure gradient source: uncorrected Ubar = 0.999999, pressure gradient = 0.00213978
smoothSolver:  Solving for omega, Initial residual = 0.000521808, Final residual = 3.68873e-05, No Iterations 5
smoothSolver:  Solving for k, Initial residual = 0.00728574, Final residual = 0.000688225, No Iterations 5
ExecutionTime = 0.133324 s  ClockTime = 0 s

Time = 55s

smoothSolver:  Solving for Ux, Initial residual = 0.00617388, Final residual = 0.000427499, No Iterations 6
smoothSolver:  Solving for Uy, Initial residual = 0.0449944, Final residual = 0.00429514, No Iterations 3
Pressure gradient source: uncorrected Ubar = 0.999986, pressure gradient = 0.00256521
GAMG:  Solving for p, Initial residual = 0.01748, Final residual = 0.00143435, No Iterations 11
time step continuity errors : sum local = 7.75439e-07, global = -1.47461e-18, cumulative = -2.22834e-17
Pressure gradient source: uncorrected Ubar = 1, pressure gradient = 0.00215097
smoothSolver:  Solving for omega, Initial residual = 0.000525402, Final residual = 4.1108e-05, No Iterations 5
smoothSolver:  Solving for k, Initial residual = 0.0076486, Final residual = 0.000755902, No Iterations 5
ExecutionTime = 0.13566 s  ClockTime = 0 s

Time = 56s

smoothSolver:  Solving for Ux, Initial residual = 0.00615453, Final residual = 0.000425448, No Iterations 6
smoothSolver:  Solving for Uy, Initial residual = 0.0293901, Final residual = 0.00279088, No Iterations 3
Pressure gradient source: uncorrected Ubar = 0.999987, pressure gradient = 0.00256892
GAMG:  Solving for p, Initial residual = 0.012558, Final residual = 0.00120752, No Iterations 12
time step continuity errors : sum local = 6.83134e-07, global = 9.19297e-18, cumulative = -1.30904e-17
Pressure gradient source: uncorrected Ubar = 1, pressure gradient = 0.00216051
smoothSolver:  Solving for omega, Initial residual = 0.000509574, Final residual = 3.76023e-05, No Iterations 5
smoothSolver:  Solving for k, Initial residual = 0.007741, Final residual = 0.000725113, No Iterations 5
ExecutionTime = 0.137962 s  ClockTime = 0 s

Time = 57s

smoothSolver:  Solving for Ux, Initial residual = 0.00613941, Final residual = 0.000423757, No Iterations 6
smoothSolver:  Solving for Uy, Initial residual = 0.0336821, Final residual = 0.00245508, No Iterations 4
Pressure gradient source: uncorrected Ubar = 0.999986, pressure gradient = 0.00259049
GAMG:  Solving for p, Initial residual = 0.0140806, Final residual = 0.00110585, No Iterations 3
time step continuity errors : sum local = 5.69865e-07, global = 7.6089e-18, cumulative = -5.4815e-18
Pressure gradient source: uncorrected Ubar = 1, pressure gradient = 0.00217201
smoothSolver:  Solving for omega, Initial residual = 0.000496011, Final residual = 3.75066e-05, No Iterations 5
smoothSolver:  Solving for k, Initial residual = 0.00823102, Final residual = 0.000537302, No Iterations 6
ExecutionTime = 0.139962 s  ClockTime = 0 s

Time = 58s

smoothSolver:  Solving for Ux, Initial residual = 0.0061254, Final residual = 0.00042223, No Iterations 6
smoothSolver:  Solving for Uy, Initial residual = 0.0411736, Final residual = 0.00323863, No Iterations 4
Pressure gradient source: uncorrected Ubar = 0.999986, pressure gradient = 0.00260423
GAMG:  Solving for p, Initial residual = 0.0161188, Final residual = 0.0010272, No Iterations 4
time step continuity errors : sum local = 5.44054e-07, global = -6.49549e-18, cumulative = -1.1977e-17
Pressure gradient source: uncorrected Ubar = 1, pressure gradient = 0.00218383
smoothSolver:  Solving for omega, Initial residual = 0.000493231, Final residual = 4.11765e-05, No Iterations 5
smoothSolver:  Solving for k, Initial residual = 0.00817017, Final residual = 0.000764493, No Iterations 5
ExecutionTime = 0.141984 s  ClockTime = 0 s

Time = 59s

smoothSolver:  Solving for Ux, Initial residual = 0.00611396, Final residual = 0.000420902, No Iterations 6
smoothSolver:  Solving for Uy, Initial residual = 0.034087, Final residual = 0.00208888, No Iterations 4
Pressure gradient source: uncorrected Ubar = 0.999986, pressure gradient = 0.00262373
GAMG:  Solving for p, Initial residual = 0.00985991, Final residual = 0.000697298, No Iterations 3
time step continuity errors : sum local = 4.20262e-07, global = -2.42265e-18, cumulative = -1.43996e-17
Pressure gradient source: uncorrected Ubar = 1, pressure gradient = 0.00219681
smoothSolver:  Solving for omega, Initial residual = 0.000470563, Final residual = 3.33299e-05, No Iterations 5
smoothSolver:  Solving for k, Initial residual = 0.00892578, Final residual = 0.000634013, No Iterations 6
ExecutionTime = 0.143896 s  ClockTime = 0 s

Time = 60s

smoothSolver:  Solving for Ux, Initial residual = 0.00609723, Final residual = 0.000419079, No Iterations 6
smoothSolver:  Solving for Uy, Initial residual = 0.046382, Final residual = 0.00462236, No Iterations 3
Pressure gradient source: uncorrected Ubar = 0.999988, pressure gradient = 0.00257072
GAMG:  Solving for p, Initial residual = 0.0164423, Final residual = 0.00139144, No Iterations 3
time step continuity errors : sum local = 8.37815e-07, global = -7.8761e-18, cumulative = -2.22757e-17
Pressure gradient source: uncorrected Ubar = 1, pressure gradient = 0.002198
smoothSolver:  Solving for omega, Initial residual = 0.000463415, Final residual = 3.32316e-05, No Iterations 5
smoothSolver:  Solving for k, Initial residual = 0.00874768, Final residual = 0.000863248, No Iterations 5
ExecutionTime = 0.145845 s  ClockTime = 0 s

Time = 61s

smoothSolver:  Solving for Ux, Initial residual = 0.00608792, Final residual = 0.000417879, No Iterations 6
smoothSolver:  Solving for Uy, Initial residual = 0.0312274, Final residual = 0.00275498, No Iterations 3
Pressure gradient source: uncorrected Ubar = 0.999986, pressure gradient = 0.00263885
GAMG:  Solving for p, Initial residual = 0.0112512, Final residual = 0.000859793, No Iterations 3
time step continuity errors : sum local = 5.80836e-07, global = -2.99125e-18, cumulative = -2.5267e-17
Pressure gradient source: uncorrected Ubar = 1, pressure gradient = 0.00221127
smoothSolver:  Solving for omega, Initial residual = 0.000457369, Final residual = 3.54443e-05, No Iterations 5
smoothSolver:  Solving for k, Initial residual = 0.00894908, Final residual = 0.000892994, No Iterations 5
ExecutionTime = 0.147906 s  ClockTime = 0 s

Time = 62s

smoothSolver:  Solving for Ux, Initial residual = 0.00607969, Final residual = 0.00041676, No Iterations 6
smoothSolver:  Solving for Uy, Initial residual = 0.0354496, Final residual = 0.00202746, No Iterations 4
Pressure gradient source: uncorrected Ubar = 0.999987, pressure gradient = 0.00262024
GAMG:  Solving for p, Initial residual = 0.0119428, Final residual = 0.00111229, No Iterations 3
time step continuity errors : sum local = 7.54642e-07, global = 4.6043e-18, cumulative = -2.06627e-17
Pressure gradient source: uncorrected Ubar = 1, pressure gradient = 0.00221882
smoothSolver:  Solving for omega, Initial residual = 0.000460403, Final residual = 3.56261e-05, No Iterations 5
smoothSolver:  Solving for k, Initial residual = 0.00949347, Final residual = 0.00064577, No Iterations 6
ExecutionTime = 0.150021 s  ClockTime = 0 s

Time = 63s

smoothSolver:  Solving for Ux, Initial residual = 0.00606366, Final residual = 0.000414743, No Iterations 6
smoothSolver:  Solving for Uy, Initial residual = 0.0290292, Final residual = 0.00188912, No Iterations 4
Pressure gradient source: uncorrected Ubar = 0.99999, pressure gradient = 0.00253804
GAMG:  Solving for p, Initial residual = 0.0091663, Final residual = 0.000786794, No Iterations 12
time step continuity errors : sum local = 6.64174e-07, global = -3.4686e-18, cumulative = -2.41313e-17
Pressure gradient source: uncorrected Ubar = 1, pressure gradient = 0.00221029
smoothSolver:  Solving for omega, Initial residual = 0.000446228, Final residual = 3.19196e-05, No Iterations 5
smoothSolver:  Solving for k, Initial residual = 0.00977723, Final residual = 0.00068519, No Iterations 6
ExecutionTime = 0.152493 s  ClockTime = 0 s

Time = 64s

smoothSolver:  Solving for Ux, Initial residual = 0.00604565, Final residual = 0.000412784, No Iterations 6
smoothSolver:  Solving for Uy, Initial residual = 0.023621, Final residual = 0.00142742, No Iterations 4
Pressure gradient source: uncorrected Ubar = 0.999988, pressure gradient = 0.00259061
GAMG:  Solving for p, Initial residual = 0.00941211, Final residual = 0.000926069, No Iterations 9
time step continuity errors : sum local = 6.51716e-07, global = 2.07622e-20, cumulative = -2.41105e-17
Pressure gradient source: uncorrected Ubar = 1, pressure gradient = 0.00221283
smoothSolver:  Solving for omega, Initial residual = 0.000439096, Final residual = 3.55143e-05, No Iterations 5
smoothSolver:  Solving for k, Initial residual = 0.00991448, Final residual = 0.000660692, No Iterations 6
ExecutionTime = 0.154729 s  ClockTime = 0 s

Time = 65s

smoothSolver:  Solving for Ux, Initial residual = 0.0060307, Final residual = 0.00041121, No Iterations 6
smoothSolver:  Solving for Uy, Initial residual = 0.0354767, Final residual = 0.00256268, No Iterations 4
Pressure gradient source: uncorrected Ubar = 0.999988, pressure gradient = 0.00261989
GAMG:  Solving for p, Initial residual = 0.0100652, Final residual = 0.000950609, No Iterations 10
time step continuity errors : sum local = 6.30046e-07, global = -2.91369e-18, cumulative = -2.70242e-17
Pressure gradient source: uncorrected Ubar = 1, pressure gradient = 0.00222025
smoothSolver:  Solving for omega, Initial residual = 0.000433552, Final residual = 3.71884e-05, No Iterations 5
smoothSolver:  Solving for k, Initial residual = 0.00969842, Final residual = 0.000867632, No Iterations 5
ExecutionTime = 0.156848 s  ClockTime = 0 s

Time = 66s

smoothSolver:  Solving for Ux, Initial residual = 0.00602066, Final residual = 0.000409921, No Iterations 6
smoothSolver:  Solving for Uy, Initial residual = 0.0489536, Final residual = 0.0035726, No Iterations 4
Pressure gradient source: uncorrected Ubar = 0.999988, pressure gradient = 0.00262026
GAMG:  Solving for p, Initial residual = 0.0116847, Final residual = 0.000908089, No Iterations 4
time step continuity errors : sum local = 5.76448e-07, global = -2.37529e-18, cumulative = -2.93995e-17
Pressure gradient source: uncorrected Ubar = 1, pressure gradient = 0.00222653
smoothSolver:  Solving for omega, Initial residual = 0.000416882, Final residual = 3.08527e-05, No Iterations 5
smoothSolver:  Solving for k, Initial residual = 0.0102034, Final residual = 0.00067422, No Iterations 6
ExecutionTime = 0.158784 s  ClockTime = 0 s

Time = 67s

smoothSolver:  Solving for Ux, Initial residual = 0.00600974, Final residual = 0.000408387, No Iterations 6
smoothSolver:  Solving for Uy, Initial residual = 0.0284932, Final residual = 0.00161593, No Iterations 4
Pressure gradient source: uncorrected Ubar = 0.999988, pressure gradient = 0.0026164
GAMG:  Solving for p, Initial residual = 0.00751835, Final residual = 0.00064595, No Iterations 15
time step continuity errors : sum local = 4.44589e-07, global = -5.31025e-18, cumulative = -3.47097e-17
Pressure gradient source: uncorrected Ubar = 1, pressure gradient = 0.00223115
smoothSolver:  Solving for omega, Initial residual = 0.000424173, Final residual = 3.80954e-05, No Iterations 5
smoothSolver:  Solving for k, Initial residual = 0.0111831, Final residual = 0.0008951, No Iterations 6
ExecutionTime = 0.161068 s  ClockTime = 0 s

Time = 68s

smoothSolver:  Solving for Ux, Initial residual = 0.00599185, Final residual = 0.000406238, No Iterations 6
smoothSolver:  Solving for Uy, Initial residual = 0.0269818, Final residual = 0.00204427, No Iterations 4
Pressure gradient source: uncorrected Ubar = 0.99999, pressure gradient = 0.00257864
GAMG:  Solving for p, Initial residual = 0.00726419, Final residual = 0.00057524, No Iterations 14
time step continuity errors : sum local = 4.46638e-07, global = 3.59941e-18, cumulative = -3.11103e-17
Pressure gradient source: uncorrected Ubar = 1, pressure gradient = 0.00222818
smoothSolver:  Solving for omega, Initial residual = 0.000410603, Final residual = 3.44105e-05, No Iterations 5
smoothSolver:  Solving for k, Initial residual = 0.0111659, Final residual = 0.000789901, No Iterations 6
ExecutionTime = 0.163287 s  ClockTime = 0 s

Time = 69s

smoothSolver:  Solving for Ux, Initial residual = 0.00597476, Final residual = 0.000404207, No Iterations 6
smoothSolver:  Solving for Uy, Initial residual = 0.03051, Final residual = 0.00272569, No Iterations 4
Pressure gradient source: uncorrected Ubar = 0.999989, pressure gradient = 0.00258779
GAMG:  Solving for p, Initial residual = 0.0105488, Final residual = 0.000965614, No Iterations 3
time step continuity errors : sum local = 6.00919e-07, global = 4.51589e-18, cumulative = -2.65944e-17
Pressure gradient source: uncorrected Ubar = 1, pressure gradient = 0.00222759
smoothSolver:  Solving for omega, Initial residual = 0.000404913, Final residual = 3.61025e-05, No Iterations 5
smoothSolver:  Solving for k, Initial residual = 0.0117873, Final residual = 0.000926265, No Iterations 6
ExecutionTime = 0.16532 s  ClockTime = 0 s

Time = 70s

smoothSolver:  Solving for Ux, Initial residual = 0.00595775, Final residual = 0.000402097, No Iterations 6
smoothSolver:  Solving for Uy, Initial residual = 0.0210758, Final residual = 0.00114118, No Iterations 4
Pressure gradient source: uncorrected Ubar = 0.999989, pressure gradient = 0.00258243
GAMG:  Solving for p, Initial residual = 0.0071734, Final residual = 0.000638468, No Iterations 13
time step continuity errors : sum local = 4.3939e-07, global = -3.7321e-19, cumulative = -2.69677e-17
Pressure gradient source: uncorrected Ubar = 1, pressure gradient = 0.00222637
smoothSolver:  Solving for omega, Initial residual = 0.000390958, Final residual = 3.15418e-05, No Iterations 5
smoothSolver:  Solving for k, Initial residual = 0.0120413, Final residual = 0.000943204, No Iterations 6
ExecutionTime = 0.1677 s  ClockTime = 0 s

Time = 71s

smoothSolver:  Solving for Ux, Initial residual = 0.00594164, Final residual = 0.000399967, No Iterations 6
smoothSolver:  Solving for Uy, Initial residual = 0.0555867, Final residual = 0.00441204, No Iterations 4
Pressure gradient source: uncorrected Ubar = 0.999989, pressure gradient = 0.00259196
GAMG:  Solving for p, Initial residual = 0.0139997, Final residual = 0.0013988, No Iterations 6
time step continuity errors : sum local = 8.71447e-07, global = -4.1815e-18, cumulative = -3.11492e-17
Pressure gradient source: uncorrected Ubar = 1, pressure gradient = 0.00222735
smoothSolver:  Solving for omega, Initial residual = 0.000386527, Final residual = 3.11269e-05, No Iterations 5
smoothSolver:  Solving for k, Initial residual = 0.0121324, Final residual = 0.000876164, No Iterations 6
ExecutionTime = 0.16989 s  ClockTime = 0 s

Time = 72s

smoothSolver:  Solving for Ux, Initial residual = 0.00592782, Final residual = 0.00039784, No Iterations 6
smoothSolver:  Solving for Uy, Initial residual = 0.0409858, Final residual = 0.00263623, No Iterations 4
Pressure gradient source: uncorrected Ubar = 0.999989, pressure gradient = 0.00259323
GAMG:  Solving for p, Initial residual = 0.0174211, Final residual = 0.00159787, No Iterations 11
time step continuity errors : sum local = 1.1321e-06, global = 3.84716e-18, cumulative = -2.7302e-17
Pressure gradient source: uncorrected Ubar = 1, pressure gradient = 0.00222857
smoothSolver:  Solving for omega, Initial residual = 0.000375951, Final residual = 2.9674e-05, No Iterations 5
smoothSolver:  Solving for k, Initial residual = 0.0125166, Final residual = 0.000910353, No Iterations 6
ExecutionTime = 0.172205 s  ClockTime = 0 s

Time = 73s

smoothSolver:  Solving for Ux, Initial residual = 0.00591277, Final residual = 0.000395962, No Iterations 6
smoothSolver:  Solving for Uy, Initial residual = 0.0435693, Final residual = 0.00426748, No Iterations 3
Pressure gradient source: uncorrected Ubar = 0.999989, pressure gradient = 0.00261401
GAMG:  Solving for p, Initial residual = 0.0142138, Final residual = 0.00134706, No Iterations 9
time step continuity errors : sum local = 8.21286e-07, global = 6.49689e-19, cumulative = -2.66523e-17
Pressure gradient source: uncorrected Ubar = 1, pressure gradient = 0.0022337
smoothSolver:  Solving for omega, Initial residual = 0.000379739, Final residual = 3.40684e-05, No Iterations 5
smoothSolver:  Solving for k, Initial residual = 0.0127831, Final residual = 0.000930026, No Iterations 6
ExecutionTime = 0.174394 s  ClockTime = 0 s

Time = 74s

smoothSolver:  Solving for Ux, Initial residual = 0.00589355, Final residual = 0.000393875, No Iterations 6
smoothSolver:  Solving for Uy, Initial residual = 0.0361528, Final residual = 0.00232555, No Iterations 4
Pressure gradient source: uncorrected Ubar = 0.99999, pressure gradient = 0.0025894
GAMG:  Solving for p, Initial residual = 0.0135004, Final residual = 0.00132277, No Iterations 11
time step continuity errors : sum local = 8.34259e-07, global = 8.74442e-18, cumulative = -1.79079e-17
Pressure gradient source: uncorrected Ubar = 1, pressure gradient = 0.00223382
smoothSolver:  Solving for omega, Initial residual = 0.000367963, Final residual = 3.04303e-05, No Iterations 5
smoothSolver:  Solving for k, Initial residual = 0.012995, Final residual = 0.000943096, No Iterations 6
ExecutionTime = 0.176622 s  ClockTime = 0 s

Time = 75s

smoothSolver:  Solving for Ux, Initial residual = 0.00587974, Final residual = 0.000391902, No Iterations 6
smoothSolver:  Solving for Uy, Initial residual = 0.0329954, Final residual = 0.00208609, No Iterations 4
Pressure gradient source: uncorrected Ubar = 0.999989, pressure gradient = 0.00259652
GAMG:  Solving for p, Initial residual = 0.0125503, Final residual = 0.00114815, No Iterations 7
time step continuity errors : sum local = 6.45836e-07, global = 1.16582e-19, cumulative = -1.77913e-17
Pressure gradient source: uncorrected Ubar = 1, pressure gradient = 0.0022355
smoothSolver:  Solving for omega, Initial residual = 0.000354346, Final residual = 2.55487e-05, No Iterations 5
smoothSolver:  Solving for k, Initial residual = 0.0133465, Final residual = 0.000989755, No Iterations 6
ExecutionTime = 0.17873 s  ClockTime = 0 s

Time = 76s

smoothSolver:  Solving for Ux, Initial residual = 0.00586495, Final residual = 0.000389875, No Iterations 6
smoothSolver:  Solving for Uy, Initial residual = 0.0475208, Final residual = 0.00352805, No Iterations 4
Pressure gradient source: uncorrected Ubar = 0.99999, pressure gradient = 0.0025671
GAMG:  Solving for p, Initial residual = 0.0169119, Final residual = 0.00155951, No Iterations 6
time step continuity errors : sum local = 8.22598e-07, global = 5.11258e-18, cumulative = -1.26787e-17
Pressure gradient source: uncorrected Ubar = 1, pressure gradient = 0.00223213
smoothSolver:  Solving for omega, Initial residual = 0.000357154, Final residual = 2.88345e-05, No Iterations 5
smoothSolver:  Solving for k, Initial residual = 0.013893, Final residual = 0.00104501, No Iterations 6
ExecutionTime = 0.180873 s  ClockTime = 0 s

Time = 77s

smoothSolver:  Solving for Ux, Initial residual = 0.00584366, Final residual = 0.000387313, No Iterations 6
smoothSolver:  Solving for Uy, Initial residual = 0.0452865, Final residual = 0.00357007, No Iterations 4
Pressure gradient source: uncorrected Ubar = 0.999989, pressure gradient = 0.00259861
GAMG:  Solving for p, Initial residual = 0.0167139, Final residual = 0.00127897, No Iterations 10
time step continuity errors : sum local = 6.671e-07, global = 6.45484e-18, cumulative = -6.22388e-18
Pressure gradient source: uncorrected Ubar = 1, pressure gradient = 0.00223543
smoothSolver:  Solving for omega, Initial residual = 0.00034923, Final residual = 3.01974e-05, No Iterations 5
smoothSolver:  Solving for k, Initial residual = 0.0145753, Final residual = 0.00117164, No Iterations 6
ExecutionTime = 0.183115 s  ClockTime = 0 s

Time = 78s

smoothSolver:  Solving for Ux, Initial residual = 0.00582368, Final residual = 0.000384826, No Iterations 6
smoothSolver:  Solving for Uy, Initial residual = 0.0327191, Final residual = 0.00214231, No Iterations 4
Pressure gradient source: uncorrected Ubar = 0.999989, pressure gradient = 0.0026026
GAMG:  Solving for p, Initial residual = 0.0140036, Final residual = 0.00137196, No Iterations 12
time step continuity errors : sum local = 8.09242e-07, global = -3.29884e-18, cumulative = -9.52272e-18
Pressure gradient source: uncorrected Ubar = 1, pressure gradient = 0.00223924
smoothSolver:  Solving for omega, Initial residual = 0.000339785, Final residual = 2.8787e-05, No Iterations 5
smoothSolver:  Solving for k, Initial residual = 0.0142745, Final residual = 0.00100002, No Iterations 6
ExecutionTime = 0.185518 s  ClockTime = 0 s

Time = 79s

smoothSolver:  Solving for Ux, Initial residual = 0.00580475, Final residual = 0.000580357, No Iterations 5
smoothSolver:  Solving for Uy, Initial residual = 0.0542289, Final residual = 0.00521565, No Iterations 4
Pressure gradient source: uncorrected Ubar = 0.999981, pressure gradient = 0.00290962
GAMG:  Solving for p, Initial residual = 0.0198588, Final residual = 0.00157045, No Iterations 4
time step continuity errors : sum local = 6.98336e-07, global = 8.79108e-19, cumulative = -8.64361e-18
Pressure gradient source: uncorrected Ubar = 0.999999, pressure gradient = 0.00228081
smoothSolver:  Solving for omega, Initial residual = 0.000335774, Final residual = 3.31724e-05, No Iterations 5
smoothSolver:  Solving for k, Initial residual = 0.015158, Final residual = 0.00123436, No Iterations 6
ExecutionTime = 0.187578 s  ClockTime = 0 s

Time = 80s

smoothSolver:  Solving for Ux, Initial residual = 0.00577423, Final residual = 0.000577, No Iterations 5
smoothSolver:  Solving for Uy, Initial residual = 0.0366083, Final residual = 0.00260596, No Iterations 4
Pressure gradient source: uncorrected Ubar = 0.999987, pressure gradient = 0.00272902
GAMG:  Solving for p, Initial residual = 0.0147931, Final residual = 0.00132973, No Iterations 10
time step continuity errors : sum local = 5.77188e-07, global = -7.57476e-18, cumulative = -1.62184e-17
Pressure gradient source: uncorrected Ubar = 1, pressure gradient = 0.00228162
smoothSolver:  Solving for omega, Initial residual = 0.000333161, Final residual = 3.03269e-05, No Iterations 5
smoothSolver:  Solving for k, Initial residual = 0.0149823, Final residual = 0.00110492, No Iterations 6
ExecutionTime = 0.189811 s  ClockTime = 0 s

Time = 81s

smoothSolver:  Solving for Ux, Initial residual = 0.0057446, Final residual = 0.000572968, No Iterations 5
smoothSolver:  Solving for Uy, Initial residual = 0.0507082, Final residual = 0.00382081, No Iterations 4
Pressure gradient source: uncorrected Ubar = 0.999986, pressure gradient = 0.0027674
GAMG:  Solving for p, Initial residual = 0.0158171, Final residual = 0.00151289, No Iterations 10
time step continuity errors : sum local = 6.1326e-07, global = 3.70128e-18, cumulative = -1.25171e-17
Pressure gradient source: uncorrected Ubar = 1, pressure gradient = 0.00228988
smoothSolver:  Solving for omega, Initial residual = 0.000312969, Final residual = 2.30052e-05, No Iterations 5
smoothSolver:  Solving for k, Initial residual = 0.0155265, Final residual = 0.001178, No Iterations 6
ExecutionTime = 0.191971 s  ClockTime = 0 s

Time = 82s

smoothSolver:  Solving for Ux, Initial residual = 0.00571221, Final residual = 0.000568703, No Iterations 5
smoothSolver:  Solving for Uy, Initial residual = 0.0474545, Final residual = 0.00336221, No Iterations 4
Pressure gradient source: uncorrected Ubar = 0.999987, pressure gradient = 0.00273072
GAMG:  Solving for p, Initial residual = 0.0222411, Final residual = 0.00190674, No Iterations 4
time step continuity errors : sum local = 8.15524e-07, global = -2.8883e-18, cumulative = -1.54054e-17
Pressure gradient source: uncorrected Ubar = 1, pressure gradient = 0.00229049
smoothSolver:  Solving for omega, Initial residual = 0.000310859, Final residual = 2.41206e-05, No Iterations 5
smoothSolver:  Solving for k, Initial residual = 0.0157445, Final residual = 0.00117265, No Iterations 6
ExecutionTime = 0.193973 s  ClockTime = 0 s

Time = 83s

smoothSolver:  Solving for Ux, Initial residual = 0.00568165, Final residual = 0.000564532, No Iterations 5
smoothSolver:  Solving for Uy, Initial residual = 0.0441395, Final residual = 0.0029593, No Iterations 4
Pressure gradient source: uncorrected Ubar = 0.999987, pressure gradient = 0.00272712
GAMG:  Solving for p, Initial residual = 0.020474, Final residual = 0.00201821, No Iterations 9
time step continuity errors : sum local = 1.00544e-06, global = -1.00355e-17, cumulative = -2.54409e-17
Pressure gradient source: uncorrected Ubar = 1, pressure gradient = 0.00229112
smoothSolver:  Solving for omega, Initial residual = 0.000305558, Final residual = 2.29528e-05, No Iterations 5
smoothSolver:  Solving for k, Initial residual = 0.0159171, Final residual = 0.001125, No Iterations 6
ExecutionTime = 0.196103 s  ClockTime = 0 s

Time = 84s

smoothSolver:  Solving for Ux, Initial residual = 0.00565174, Final residual = 0.000559652, No Iterations 5
smoothSolver:  Solving for Uy, Initial residual = 0.0339086, Final residual = 0.00251149, No Iterations 4
Pressure gradient source: uncorrected Ubar = 0.999987, pressure gradient = 0.00273737
GAMG:  Solving for p, Initial residual = 0.0181638, Final residual = 0.00180705, No Iterations 5
time step continuity errors : sum local = 9.70523e-07, global = 3.09167e-19, cumulative = -2.51318e-17
Pressure gradient source: uncorrected Ubar = 1, pressure gradient = 0.00229424
smoothSolver:  Solving for omega, Initial residual = 0.000311931, Final residual = 2.96426e-05, No Iterations 5
smoothSolver:  Solving for k, Initial residual = 0.0161788, Final residual = 0.00121037, No Iterations 6
ExecutionTime = 0.198207 s  ClockTime = 0 s

Time = 85s

smoothSolver:  Solving for Ux, Initial residual = 0.00561763, Final residual = 0.000554841, No Iterations 5
smoothSolver:  Solving for Uy, Initial residual = 0.0415747, Final residual = 0.00312165, No Iterations 4
Pressure gradient source: uncorrected Ubar = 0.999988, pressure gradient = 0.0027178
GAMG:  Solving for p, Initial residual = 0.0170771, Final residual = 0.00154073, No Iterations 12
time step continuity errors : sum local = 8.37811e-07, global = 1.18335e-17, cumulative = -1.32983e-17
Pressure gradient source: uncorrected Ubar = 1, pressure gradient = 0.00229395
smoothSolver:  Solving for omega, Initial residual = 0.000301768, Final residual = 2.72963e-05, No Iterations 5
smoothSolver:  Solving for k, Initial residual = 0.0165894, Final residual = 0.00128042, No Iterations 6
ExecutionTime = 0.200665 s  ClockTime = 0 s

Time = 86s

smoothSolver:  Solving for Ux, Initial residual = 0.00556802, Final residual = 0.000549872, No Iterations 5
smoothSolver:  Solving for Uy, Initial residual = 0.0252968, Final residual = 0.00205955, No Iterations 4
Pressure gradient source: uncorrected Ubar = 0.999987, pressure gradient = 0.00275187
GAMG:  Solving for p, Initial residual = 0.00848963, Final residual = 0.000734097, No Iterations 11
time step continuity errors : sum local = 4.38991e-07, global = -1.80814e-18, cumulative = -1.51064e-17
Pressure gradient source: uncorrected Ubar = 1, pressure gradient = 0.00230071
smoothSolver:  Solving for omega, Initial residual = 0.000298111, Final residual = 2.7587e-05, No Iterations 5
smoothSolver:  Solving for k, Initial residual = 0.0167523, Final residual = 0.00121799, No Iterations 6
ExecutionTime = 0.202968 s  ClockTime = 0 s

Time = 87s

smoothSolver:  Solving for Ux, Initial residual = 0.00545598, Final residual = 0.000541312, No Iterations 5
smoothSolver:  Solving for Uy, Initial residual = 0.0406695, Final residual = 0.00392236, No Iterations 4
Pressure gradient source: uncorrected Ubar = 0.99999, pressure gradient = 0.00265844
GAMG:  Solving for p, Initial residual = 0.00908802, Final residual = 0.000864841, No Iterations 7
time step continuity errors : sum local = 6.26004e-07, global = 8.33189e-19, cumulative = -1.42732e-17
Pressure gradient source: uncorrected Ubar = 1, pressure gradient = 0.00228965
smoothSolver:  Solving for omega, Initial residual = 0.000285671, Final residual = 2.22123e-05, No Iterations 5
smoothSolver:  Solving for k, Initial residual = 0.0170431, Final residual = 0.0011983, No Iterations 6
ExecutionTime = 0.205106 s  ClockTime = 0 s

Time = 88s

smoothSolver:  Solving for Ux, Initial residual = 0.00537562, Final residual = 0.000531803, No Iterations 5
smoothSolver:  Solving for Uy, Initial residual = 0.0610654, Final residual = 0.00540686, No Iterations 4
Pressure gradient source: uncorrected Ubar = 0.99999, pressure gradient = 0.00264089
GAMG:  Solving for p, Initial residual = 0.0114866, Final residual = 0.00112784, No Iterations 3
time step continuity errors : sum local = 7.54854e-07, global = 1.0873e-18, cumulative = -1.31859e-17
Pressure gradient source: uncorrected Ubar = 1, pressure gradient = 0.00227822
smoothSolver:  Solving for omega, Initial residual = 0.000283638, Final residual = 2.36706e-05, No Iterations 5
smoothSolver:  Solving for k, Initial residual = 0.0180224, Final residual = 0.00136329, No Iterations 6
ExecutionTime = 0.207005 s  ClockTime = 0 s

Time = 89s

smoothSolver:  Solving for Ux, Initial residual = 0.00530053, Final residual = 0.000523261, No Iterations 5
smoothSolver:  Solving for Uy, Initial residual = 0.0464084, Final residual = 0.0037733, No Iterations 4
Pressure gradient source: uncorrected Ubar = 0.999989, pressure gradient = 0.00266859
[...]
Pressure gradient source: uncorrected Ubar = 1, pressure gradient = 0.00256489
smoothSolver:  Solving for omega, Initial residual = 8.43196e-06, Final residual = 8.43196e-06, No Iterations 0
smoothSolver:  Solving for k, Initial residual = 3.34076e-05, Final residual = 7.82392e-06, No Iterations 3
ExecutionTime = 1.27358 s  ClockTime = 2 s

Time = 590s

smoothSolver:  Solving for Ux, Initial residual = 3.77482e-06, Final residual = 3.77482e-06, No Iterations 0
smoothSolver:  Solving for Uy, Initial residual = 0.021829, Final residual = 0.00179847, No Iterations 3
Pressure gradient source: uncorrected Ubar = 1, pressure gradient = 0.00256489
GAMG:  Solving for p, Initial residual = 0.00132235, Final residual = 0.000103203, No Iterations 4
time step continuity errors : sum local = 6.107e-10, global = 7.0704e-19, cumulative = -7.80852e-18
Pressure gradient source: uncorrected Ubar = 1, pressure gradient = 0.00256487
smoothSolver:  Solving for omega, Initial residual = 8.42228e-06, Final residual = 8.42228e-06, No Iterations 0
smoothSolver:  Solving for k, Initial residual = 3.38742e-05, Final residual = 7.59013e-06, No Iterations 3
ExecutionTime = 1.27546 s  ClockTime = 2 s

Time = 591s

smoothSolver:  Solving for Ux, Initial residual = 3.69728e-06, Final residual = 3.69728e-06, No Iterations 0
smoothSolver:  Solving for Uy, Initial residual = 0.0177918, Final residual = 0.000797276, No Iterations 4
Pressure gradient source: uncorrected Ubar = 1, pressure gradient = 0.00256487
GAMG:  Solving for p, Initial residual = 0.00107278, Final residual = 5.25192e-05, No Iterations 4
time step continuity errors : sum local = 3.11323e-10, global = -5.41739e-19, cumulative = -8.35026e-18
Pressure gradient source: uncorrected Ubar = 1, pressure gradient = 0.00256485
smoothSolver:  Solving for omega, Initial residual = 8.41248e-06, Final residual = 8.41248e-06, No Iterations 0
smoothSolver:  Solving for k, Initial residual = 3.69323e-05, Final residual = 9.8602e-06, No Iterations 3
ExecutionTime = 1.27734 s  ClockTime = 2 s

Time = 592s

smoothSolver:  Solving for Ux, Initial residual = 3.60724e-06, Final residual = 3.60724e-06, No Iterations 0
smoothSolver:  Solving for Uy, Initial residual = 0.015705, Final residual = 0.00134829, No Iterations 3
Pressure gradient source: uncorrected Ubar = 1, pressure gradient = 0.00256485
GAMG:  Solving for p, Initial residual = 0.000862578, Final residual = 7.17385e-05, No Iterations 9
time step continuity errors : sum local = 4.38888e-10, global = 1.66132e-18, cumulative = -6.68894e-18
Pressure gradient source: uncorrected Ubar = 1, pressure gradient = 0.00256483
smoothSolver:  Solving for omega, Initial residual = 8.40231e-06, Final residual = 8.40231e-06, No Iterations 0
smoothSolver:  Solving for k, Initial residual = 3.2834e-05, Final residual = 7.71683e-06, No Iterations 3
ExecutionTime = 1.27935 s  ClockTime = 2 s

Time = 593s

smoothSolver:  Solving for Ux, Initial residual = 3.53663e-06, Final residual = 3.53663e-06, No Iterations 0
smoothSolver:  Solving for Uy, Initial residual = 0.0208987, Final residual = 0.00176927, No Iterations 3
Pressure gradient source: uncorrected Ubar = 1, pressure gradient = 0.00256483
GAMG:  Solving for p, Initial residual = 0.00116011, Final residual = 9.5217e-05, No Iterations 4
time step continuity errors : sum local = 5.61659e-10, global = 1.28311e-17, cumulative = 6.14213e-18
Pressure gradient source: uncorrected Ubar = 1, pressure gradient = 0.00256481
smoothSolver:  Solving for omega, Initial residual = 8.39197e-06, Final residual = 8.39197e-06, No Iterations 0
smoothSolver:  Solving for k, Initial residual = 3.45153e-05, Final residual = 8.479e-06, No Iterations 3
ExecutionTime = 1.28133 s  ClockTime = 2 s

Time = 594s

smoothSolver:  Solving for Ux, Initial residual = 3.47233e-06, Final residual = 3.47233e-06, No Iterations 0
smoothSolver:  Solving for Uy, Initial residual = 0.0112252, Final residual = 0.00106855, No Iterations 3
Pressure gradient source: uncorrected Ubar = 1, pressure gradient = 0.00256481
GAMG:  Solving for p, Initial residual = 0.000732331, Final residual = 6.05338e-05, No Iterations 10
time step continuity errors : sum local = 3.32624e-10, global = 3.93868e-18, cumulative = 1.00808e-17
Pressure gradient source: uncorrected Ubar = 1, pressure gradient = 0.00256479
smoothSolver:  Solving for omega, Initial residual = 8.38157e-06, Final residual = 8.38157e-06, No Iterations 0
smoothSolver:  Solving for k, Initial residual = 3.60182e-05, Final residual = 9.56227e-06, No Iterations 3
ExecutionTime = 1.28364 s  ClockTime = 2 s

Time = 595s

smoothSolver:  Solving for Ux, Initial residual = 3.38477e-06, Final residual = 3.38477e-06, No Iterations 0
smoothSolver:  Solving for Uy, Initial residual = 0.0134242, Final residual = 0.00108101, No Iterations 3
Pressure gradient source: uncorrected Ubar = 1, pressure gradient = 0.00256479
GAMG:  Solving for p, Initial residual = 0.00105844, Final residual = 9.45639e-05, No Iterations 4
time step continuity errors : sum local = 5.41026e-10, global = 9.27765e-18, cumulative = 1.93585e-17
Pressure gradient source: uncorrected Ubar = 1, pressure gradient = 0.00256477
smoothSolver:  Solving for omega, Initial residual = 8.37095e-06, Final residual = 8.37095e-06, No Iterations 0
smoothSolver:  Solving for k, Initial residual = 3.29124e-05, Final residual = 7.65803e-06, No Iterations 3
ExecutionTime = 1.28565 s  ClockTime = 2 s

Time = 596s

smoothSolver:  Solving for Ux, Initial residual = 3.31979e-06, Final residual = 3.31979e-06, No Iterations 0
smoothSolver:  Solving for Uy, Initial residual = 0.0177173, Final residual = 0.00155956, No Iterations 3
Pressure gradient source: uncorrected Ubar = 1, pressure gradient = 0.00256477
GAMG:  Solving for p, Initial residual = 0.00124909, Final residual = 8.3479e-05, No Iterations 4
time step continuity errors : sum local = 4.88e-10, global = -6.11894e-18, cumulative = 1.32395e-17
Pressure gradient source: uncorrected Ubar = 1, pressure gradient = 0.00256475
smoothSolver:  Solving for omega, Initial residual = 8.36021e-06, Final residual = 8.36021e-06, No Iterations 0
smoothSolver:  Solving for k, Initial residual = 3.29943e-05, Final residual = 7.47052e-06, No Iterations 3
ExecutionTime = 1.28758 s  ClockTime = 2 s

Time = 597s

smoothSolver:  Solving for Ux, Initial residual = 3.25653e-06, Final residual = 3.25653e-06, No Iterations 0
smoothSolver:  Solving for Uy, Initial residual = 0.0120521, Final residual = 0.00113713, No Iterations 3
Pressure gradient source: uncorrected Ubar = 1, pressure gradient = 0.00256475
GAMG:  Solving for p, Initial residual = 0.000897233, Final residual = 8.12142e-05, No Iterations 4
time step continuity errors : sum local = 4.72778e-10, global = -5.45702e-18, cumulative = 7.78249e-18
Pressure gradient source: uncorrected Ubar = 1, pressure gradient = 0.00256473
smoothSolver:  Solving for omega, Initial residual = 8.34949e-06, Final residual = 8.34949e-06, No Iterations 0
smoothSolver:  Solving for k, Initial residual = 3.65085e-05, Final residual = 6.95872e-06, No Iterations 4
ExecutionTime = 1.28948 s  ClockTime = 2 s

Time = 598s

smoothSolver:  Solving for Ux, Initial residual = 3.16538e-06, Final residual = 3.16538e-06, No Iterations 0
smoothSolver:  Solving for Uy, Initial residual = 0.0149577, Final residual = 0.00140085, No Iterations 3
Pressure gradient source: uncorrected Ubar = 1, pressure gradient = 0.00256473
GAMG:  Solving for p, Initial residual = 0.000805831, Final residual = 7.83863e-05, No Iterations 10
time step continuity errors : sum local = 4.38844e-10, global = -3.0233e-18, cumulative = 4.7592e-18
Pressure gradient source: uncorrected Ubar = 1, pressure gradient = 0.00256471
smoothSolver:  Solving for omega, Initial residual = 8.33856e-06, Final residual = 8.33856e-06, No Iterations 0
smoothSolver:  Solving for k, Initial residual = 3.3342e-05, Final residual = 8.11213e-06, No Iterations 3
ExecutionTime = 1.2915 s  ClockTime = 2 s

Time = 599s

smoothSolver:  Solving for Ux, Initial residual = 3.1027e-06, Final residual = 3.1027e-06, No Iterations 0
smoothSolver:  Solving for Uy, Initial residual = 0.0168133, Final residual = 0.00161475, No Iterations 3
Pressure gradient source: uncorrected Ubar = 1, pressure gradient = 0.00256471
GAMG:  Solving for p, Initial residual = 0.00116633, Final residual = 0.000103208, No Iterations 3
time step continuity errors : sum local = 5.66164e-10, global = -1.35346e-17, cumulative = -8.77545e-18
Pressure gradient source: uncorrected Ubar = 1, pressure gradient = 0.00256469
smoothSolver:  Solving for omega, Initial residual = 8.32767e-06, Final residual = 8.32767e-06, No Iterations 0
smoothSolver:  Solving for k, Initial residual = 3.01529e-05, Final residual = 6.49611e-06, No Iterations 3
ExecutionTime = 1.29336 s  ClockTime = 2 s

Time = 600s

smoothSolver:  Solving for Ux, Initial residual = 3.04485e-06, Final residual = 3.04485e-06, No Iterations 0
smoothSolver:  Solving for Uy, Initial residual = 0.0131426, Final residual = 0.000647948, No Iterations 4
Pressure gradient source: uncorrected Ubar = 1, pressure gradient = 0.00256469
GAMG:  Solving for p, Initial residual = 0.000750851, Final residual = 6.68328e-05, No Iterations 3
time step continuity errors : sum local = 3.51799e-10, global = -1.09314e-18, cumulative = -9.86859e-18
Pressure gradient source: uncorrected Ubar = 1, pressure gradient = 0.00256467
smoothSolver:  Solving for omega, Initial residual = 8.31658e-06, Final residual = 8.31658e-06, No Iterations 0
smoothSolver:  Solving for k, Initial residual = 3.57411e-05, Final residual = 9.91302e-06, No Iterations 3
ExecutionTime = 1.29522 s  ClockTime = 2 s

Time = 601s

smoothSolver:  Solving for Ux, Initial residual = 2.97847e-06, Final residual = 2.97847e-06, No Iterations 0
smoothSolver:  Solving for Uy, Initial residual = 0.0124195, Final residual = 0.000940541, No Iterations 3
Pressure gradient source: uncorrected Ubar = 1, pressure gradient = 0.00256467
GAMG:  Solving for p, Initial residual = 0.000883167, Final residual = 6.75103e-05, No Iterations 4
time step continuity errors : sum local = 3.84062e-10, global = 2.78417e-18, cumulative = -7.08442e-18
Pressure gradient source: uncorrected Ubar = 1, pressure gradient = 0.00256465
smoothSolver:  Solving for omega, Initial residual = 8.30581e-06, Final residual = 8.30581e-06, No Iterations 0
smoothSolver:  Solving for k, Initial residual = 3.37774e-05, Final residual = 8.69736e-06, No Iterations 3
ExecutionTime = 1.29726 s  ClockTime = 2 s

Time = 602s

smoothSolver:  Solving for Ux, Initial residual = 2.91286e-06, Final residual = 2.91286e-06, No Iterations 0
smoothSolver:  Solving for Uy, Initial residual = 0.0135842, Final residual = 0.00124911, No Iterations 3
Pressure gradient source: uncorrected Ubar = 1, pressure gradient = 0.00256465
GAMG:  Solving for p, Initial residual = 0.000845676, Final residual = 3.6905e-05, No Iterations 4
time step continuity errors : sum local = 2.13826e-10, global = 6.24394e-19, cumulative = -6.46002e-18
Pressure gradient source: uncorrected Ubar = 1, pressure gradient = 0.00256463
smoothSolver:  Solving for omega, Initial residual = 8.29453e-06, Final residual = 8.29453e-06, No Iterations 0
smoothSolver:  Solving for k, Initial residual = 3.08394e-05, Final residual = 7.07849e-06, No Iterations 3
ExecutionTime = 1.29932 s  ClockTime = 2 s

Time = 603s

smoothSolver:  Solving for Ux, Initial residual = 2.86312e-06, Final residual = 2.86312e-06, No Iterations 0
smoothSolver:  Solving for Uy, Initial residual = 0.0112713, Final residual = 0.000539424, No Iterations 4
Pressure gradient source: uncorrected Ubar = 1, pressure gradient = 0.00256463
GAMG:  Solving for p, Initial residual = 0.000741193, Final residual = 3.66786e-05, No Iterations 4
time step continuity errors : sum local = 2.06669e-10, global = 1.34502e-17, cumulative = 6.99014e-18
Pressure gradient source: uncorrected Ubar = 1, pressure gradient = 0.00256461
smoothSolver:  Solving for omega, Initial residual = 8.28328e-06, Final residual = 8.28328e-06, No Iterations 0
smoothSolver:  Solving for k, Initial residual = 3.17844e-05, Final residual = 8.00771e-06, No Iterations 3
ExecutionTime = 1.30135 s  ClockTime = 2 s

Time = 604s

smoothSolver:  Solving for Ux, Initial residual = 2.81004e-06, Final residual = 2.81004e-06, No Iterations 0
smoothSolver:  Solving for Uy, Initial residual = 0.013962, Final residual = 0.00119051, No Iterations 3
Pressure gradient source: uncorrected Ubar = 1, pressure gradient = 0.00256461
GAMG:  Solving for p, Initial residual = 0.000856166, Final residual = 5.7862e-05, No Iterations 4
time step continuity errors : sum local = 3.30025e-10, global = 7.59486e-19, cumulative = 7.74962e-18
Pressure gradient source: uncorrected Ubar = 1, pressure gradient = 0.00256459
smoothSolver:  Solving for omega, Initial residual = 8.27203e-06, Final residual = 8.27203e-06, No Iterations 0
smoothSolver:  Solving for k, Initial residual = 3.17889e-05, Final residual = 7.81534e-06, No Iterations 3
ExecutionTime = 1.30333 s  ClockTime = 2 s

Time = 605s

smoothSolver:  Solving for Ux, Initial residual = 2.76989e-06, Final residual = 2.76989e-06, No Iterations 0
smoothSolver:  Solving for Uy, Initial residual = 0.0171819, Final residual = 0.00138931, No Iterations 3
Pressure gradient source: uncorrected Ubar = 1, pressure gradient = 0.00256459
GAMG:  Solving for p, Initial residual = 0.000952168, Final residual = 4.22359e-05, No Iterations 4
time step continuity errors : sum local = 2.31779e-10, global = -7.46164e-18, cumulative = 2.87987e-19
Pressure gradient source: uncorrected Ubar = 1, pressure gradient = 0.00256457
smoothSolver:  Solving for omega, Initial residual = 8.26065e-06, Final residual = 8.26065e-06, No Iterations 0
smoothSolver:  Solving for k, Initial residual = 3.03208e-05, Final residual = 7.03849e-06, No Iterations 3
ExecutionTime = 1.30528 s  ClockTime = 2 s

Time = 606s

smoothSolver:  Solving for Ux, Initial residual = 2.72956e-06, Final residual = 2.72956e-06, No Iterations 0
smoothSolver:  Solving for Uy, Initial residual = 0.0109566, Final residual = 0.000477582, No Iterations 4
Pressure gradient source: uncorrected Ubar = 1, pressure gradient = 0.00256457
GAMG:  Solving for p, Initial residual = 0.000746005, Final residual = 6.56561e-05, No Iterations 3
time step continuity errors : sum local = 3.39596e-10, global = -7.48423e-18, cumulative = -7.19624e-18
Pressure gradient source: uncorrected Ubar = 1, pressure gradient = 0.00256455
smoothSolver:  Solving for omega, Initial residual = 8.24927e-06, Final residual = 8.24927e-06, No Iterations 0
smoothSolver:  Solving for k, Initial residual = 3.29648e-05, Final residual = 9.06489e-06, No Iterations 3
ExecutionTime = 1.30712 s  ClockTime = 2 s

Time = 607s

smoothSolver:  Solving for Ux, Initial residual = 2.68849e-06, Final residual = 2.68849e-06, No Iterations 0
smoothSolver:  Solving for Uy, Initial residual = 0.0132982, Final residual = 0.00105293, No Iterations 3
Pressure gradient source: uncorrected Ubar = 1, pressure gradient = 0.00256455
GAMG:  Solving for p, Initial residual = 0.000811399, Final residual = 7.86136e-05, No Iterations 3
time step continuity errors : sum local = 4.11017e-10, global = -1.99009e-18, cumulative = -9.18633e-18
Pressure gradient source: uncorrected Ubar = 1, pressure gradient = 0.00256453
smoothSolver:  Solving for omega, Initial residual = 8.23776e-06, Final residual = 8.23776e-06, No Iterations 0
smoothSolver:  Solving for k, Initial residual = 2.84559e-05, Final residual = 9.9994e-06, No Iterations 2
ExecutionTime = 1.30901 s  ClockTime = 2 s

Time = 608s

smoothSolver:  Solving for Ux, Initial residual = 2.65912e-06, Final residual = 2.65912e-06, No Iterations 0
smoothSolver:  Solving for Uy, Initial residual = 0.0125544, Final residual = 0.000980695, No Iterations 3
Pressure gradient source: uncorrected Ubar = 1, pressure gradient = 0.00256453
GAMG:  Solving for p, Initial residual = 0.00070816, Final residual = 3.73455e-05, No Iterations 4
time step continuity errors : sum local = 1.98647e-10, global = -7.98867e-18, cumulative = -1.7175e-17
Pressure gradient source: uncorrected Ubar = 1, pressure gradient = 0.00256451
smoothSolver:  Solving for omega, Initial residual = 8.22644e-06, Final residual = 8.22644e-06, No Iterations 0
smoothSolver:  Solving for k, Initial residual = 3.05478e-05, Final residual = 7.33532e-06, No Iterations 3
ExecutionTime = 1.31087 s  ClockTime = 2 s

Time = 609s

smoothSolver:  Solving for Ux, Initial residual = 2.63211e-06, Final residual = 2.63211e-06, No Iterations 0
smoothSolver:  Solving for Uy, Initial residual = 0.011432, Final residual = 0.000552149, No Iterations 4
Pressure gradient source: uncorrected Ubar = 1, pressure gradient = 0.00256451
GAMG:  Solving for p, Initial residual = 0.000722063, Final residual = 6.50277e-05, No Iterations 3
time step continuity errors : sum local = 3.31701e-10, global = 1.26978e-17, cumulative = -4.47719e-18
Pressure gradient source: uncorrected Ubar = 1, pressure gradient = 0.0025645
smoothSolver:  Solving for omega, Initial residual = 8.21471e-06, Final residual = 8.21471e-06, No Iterations 0
smoothSolver:  Solving for k, Initial residual = 3.27156e-05, Final residual = 9.0876e-06, No Iterations 3
ExecutionTime = 1.31276 s  ClockTime = 2 s

Time = 610s

smoothSolver:  Solving for Ux, Initial residual = 2.61356e-06, Final residual = 2.61356e-06, No Iterations 0
smoothSolver:  Solving for Uy, Initial residual = 0.0124564, Final residual = 0.000950873, No Iterations 3
Pressure gradient source: uncorrected Ubar = 1, pressure gradient = 0.0025645
GAMG:  Solving for p, Initial residual = 0.00101447, Final residual = 6.4749e-05, No Iterations 3
time step continuity errors : sum local = 3.70079e-10, global = -2.66515e-18, cumulative = -7.14234e-18
Pressure gradient source: uncorrected Ubar = 1, pressure gradient = 0.00256448
smoothSolver:  Solving for omega, Initial residual = 8.20301e-06, Final residual = 8.20301e-06, No Iterations 0
smoothSolver:  Solving for k, Initial residual = 3.02042e-05, Final residual = 7.45675e-06, No Iterations 3
ExecutionTime = 1.31475 s  ClockTime = 2 s

Time = 611s

smoothSolver:  Solving for Ux, Initial residual = 2.60829e-06, Final residual = 2.60829e-06, No Iterations 0
smoothSolver:  Solving for Uy, Initial residual = 0.0111872, Final residual = 0.000895393, No Iterations 3
Pressure gradient source: uncorrected Ubar = 1, pressure gradient = 0.00256448
GAMG:  Solving for p, Initial residual = 0.000788043, Final residual = 7.49333e-05, No Iterations 3
time step continuity errors : sum local = 4.06668e-10, global = -1.27804e-17, cumulative = -1.99227e-17
Pressure gradient source: uncorrected Ubar = 1, pressure gradient = 0.00256446
smoothSolver:  Solving for omega, Initial residual = 8.19122e-06, Final residual = 8.19122e-06, No Iterations 0
smoothSolver:  Solving for k, Initial residual = 2.80833e-05, Final residual = 6.08042e-06, No Iterations 3
ExecutionTime = 1.31673 s  ClockTime = 2 s

Time = 612s

smoothSolver:  Solving for Ux, Initial residual = 2.61179e-06, Final residual = 2.61179e-06, No Iterations 0
smoothSolver:  Solving for Uy, Initial residual = 0.00865615, Final residual = 0.000393054, No Iterations 4
Pressure gradient source: uncorrected Ubar = 1, pressure gradient = 0.00256446
GAMG:  Solving for p, Initial residual = 0.000677465, Final residual = 5.98967e-05, No Iterations 3
time step continuity errors : sum local = 3.18729e-10, global = 7.49584e-18, cumulative = -1.24269e-17
Pressure gradient source: uncorrected Ubar = 1, pressure gradient = 0.00256444
smoothSolver:  Solving for omega, Initial residual = 8.17961e-06, Final residual = 8.17961e-06, No Iterations 0
smoothSolver:  Solving for k, Initial residual = 3.13972e-05, Final residual = 8.7092e-06, No Iterations 3
ExecutionTime = 1.31872 s  ClockTime = 2 s


SIMPLE solution converged in 612 iterations

End

