/*---------------------------------------------------------------------------*\
  =========                 |
  \\      /  F ield         | OpenFOAM: The Open Source CFD Toolbox
   \\    /   O peration     | Website:  https://openfoam.org
    \\  /    A nd           | Version:  10
     \\/     M anipulation  |
\*---------------------------------------------------------------------------*/
Build  : 10-e450dce21ea5
Exec   : blockMesh
Date   : Jan 16 2023
Time   : 11:42:01
Host   : "w530-R9YK46P"
PID    : 13706
I/O    : uncollated
Case   : /home/jdmezazeron/gitDanielMezaZ/turbulenceVisualized/Data/SimulationFiles/E1_Re123
nProcs : 1
sigFpe : Enabling floating point exception trapping (FOAM_SIGFPE).
fileModificationChecking : Monitoring run-time modified files using timeStampMaster (fileModificationSkew 10)
allowSystemOperations : Allowing user-supplied system call operations

// * * * * * * * * * * * * * * * * * * * * * * * * * * * * * * * * * * * * * //
Create time

Reading "blockMeshDict"

Creating block mesh from
    "system/blockMeshDict"
Creating block edges
No non-planar block faces defined
Creating topology blocks
Creating topology patches

Creating block mesh topology

Check topology

	Basic statistics
		Number of internal faces : 0
		Number of boundary faces : 6
		Number of defined boundary faces : 6
		Number of undefined boundary faces : 0
	Checking patch -> block consistency

Creating block offsets
Creating merge list .

Creating polyMesh from blockMesh
Creating patches
Creating cells
Creating points with scale 1
    Block 0 cell size :
        i : 0.5
        j : 0.00921276 .. 0.036851
        k : 2

Detected cyclic patches; ordering boundary faces

Writing polyMesh
----------------
Mesh Information
----------------
  boundingBox: (-1 0 -1) (1 1 1)
  nPoints: 510
  nCells: 200
  nFaces: 854
  nInternalFaces: 346
----------------
Patches
----------------
  patch 0 (start: 346 size: 50) name: inlet
  patch 1 (start: 396 size: 50) name: outlet
  patch 2 (start: 446 size: 4) name: fixedWalls-bottom
  patch 3 (start: 450 size: 4) name: fixedWalls-top
  patch 4 (start: 454 size: 400) name: frontAndBack

End

/*---------------------------------------------------------------------------*\
  =========                 |
  \\      /  F ield         | OpenFOAM: The Open Source CFD Toolbox
   \\    /   O peration     | Website:  https://openfoam.org
    \\  /    A nd           | Version:  10
     \\/     M anipulation  |
\*---------------------------------------------------------------------------*/
Build  : 10-e450dce21ea5
Exec   : simpleFoam
Date   : Jan 16 2023
Time   : 11:42:01
Host   : "w530-R9YK46P"
PID    : 13707
I/O    : uncollated
Case   : /home/jdmezazeron/gitDanielMezaZ/turbulenceVisualized/Data/SimulationFiles/E1_Re123
nProcs : 1
sigFpe : Enabling floating point exception trapping (FOAM_SIGFPE).
fileModificationChecking : Monitoring run-time modified files using timeStampMaster (fileModificationSkew 10)
allowSystemOperations : Allowing user-supplied system call operations

// * * * * * * * * * * * * * * * * * * * * * * * * * * * * * * * * * * * * * //
Create time

Create mesh for time = 0


SIMPLE: Convergence criteria found
        U: tolerance 0.01
        p: tolerance 0.01
        omega: tolerance 0.0001

Reading field p

Reading field U

Reading/calculating face flux field phi

Selecting viscosity model Newtonian
Selecting turbulence model type RAS
Selecting RAS turbulence model kOmegaSST
Selecting patchDistMethod meshWave
RAS
{
    RASModel        kOmegaSST;
    turbulence      on;
    printCoeffs     on;
    alphaK1         0.85;
    alphaK2         1;
    alphaOmega1     0.5;
    alphaOmega2     0.856;
    gamma1          0.555556;
    gamma2          0.44;
    beta1           0.075;
    beta2           0.0828;
    betaStar        0.09;
    a1              0.31;
    b1              1;
    c1              10;
    F3              false;
}

No MRF models present

--> FOAM Warning : Creating fvModels from "system/fvOptions" rather than constant/fvModels
No fvModels present
--> FOAM Warning : Creating fvConstraints from "system/fvOptions"

Selecting finite volume constraint type meanVelocityForce
    Name: momentumSource
    - selecting all cells
    - selected 200 cell(s) with volume 4
    Initial pressure gradient = 0


Starting time loop

turbulenceFields stressComponents: storing fields:
    R

Time = 1s

smoothSolver:  Solving for Ux, Initial residual = 0, Final residual = 0, No Iterations 0
smoothSolver:  Solving for Uy, Initial residual = 0, Final residual = 0, No Iterations 0
Pressure gradient source: uncorrected Ubar = 0, pressure gradient = 63.0641
GAMG:  Solving for p, Initial residual = 0.999989, Final residual = 0.0521223, No Iterations 3
time step continuity errors : sum local = 9.74373e-17, global = -2.23293e-18, cumulative = -2.23293e-18
Pressure gradient source: uncorrected Ubar = 0.869361, pressure gradient = 8.23866
smoothSolver:  Solving for omega, Initial residual = 0.0177094, Final residual = 0.00162583, No Iterations 2
smoothSolver:  Solving for k, Initial residual = 1, Final residual = 0.0277798, No Iterations 1
ExecutionTime = 0.012772 s  ClockTime = 0 s

Time = 2s

smoothSolver:  Solving for Ux, Initial residual = 0.390468, Final residual = 0.0314994, No Iterations 6
smoothSolver:  Solving for Uy, Initial residual = 1, Final residual = 0.0744036, No Iterations 2
Pressure gradient source: uncorrected Ubar = 1.94356, pressure gradient = -55.3879
GAMG:  Solving for p, Initial residual = 1, Final residual = 0.0789122, No Iterations 6
time step continuity errors : sum local = 0.000511447, global = 1.84653e-18, cumulative = -3.86399e-19
Pressure gradient source: uncorrected Ubar = 1.12998, pressure gradient = -0.525945
smoothSolver:  Solving for omega, Initial residual = 0.179277, Final residual = 0.000634031, No Iterations 1
smoothSolver:  Solving for k, Initial residual = 0.105092, Final residual = 0.00578048, No Iterations 3
ExecutionTime = 0.014926 s  ClockTime = 0 s

Time = 3s

smoothSolver:  Solving for Ux, Initial residual = 0.0525178, Final residual = 0.00511554, No Iterations 5
smoothSolver:  Solving for Uy, Initial residual = 0.294881, Final residual = 0.0202136, No Iterations 5
Pressure gradient source: uncorrected Ubar = 0.916326, pressure gradient = 5.16841
GAMG:  Solving for p, Initial residual = 0.212161, Final residual = 0.0107687, No Iterations 7
time step continuity errors : sum local = 0.000134008, global = -1.42302e-19, cumulative = -5.28701e-19
Pressure gradient source: uncorrected Ubar = 0.987877, pressure gradient = 0.299101
smoothSolver:  Solving for omega, Initial residual = 0.00895997, Final residual = 0.000163534, No Iterations 1
smoothSolver:  Solving for k, Initial residual = 0.0395221, Final residual = 0.00257063, No Iterations 4
ExecutionTime = 0.017119 s  ClockTime = 0 s

Time = 4s

smoothSolver:  Solving for Ux, Initial residual = 0.0234065, Final residual = 0.00158292, No Iterations 5
smoothSolver:  Solving for Uy, Initial residual = 0.143736, Final residual = 0.0110334, No Iterations 4
Pressure gradient source: uncorrected Ubar = 1.01275, pressure gradient = -0.55853
GAMG:  Solving for p, Initial residual = 0.204647, Final residual = 0.0168022, No Iterations 6
time step continuity errors : sum local = 0.000186237, global = 1.15451e-18, cumulative = 6.25805e-19
Pressure gradient source: uncorrected Ubar = 1.00179, pressure gradient = 0.17846
smoothSolver:  Solving for omega, Initial residual = 0.00841525, Final residual = 0.000128882, No Iterations 1
smoothSolver:  Solving for k, Initial residual = 0.0281315, Final residual = 0.00264835, No Iterations 4
ExecutionTime = 0.019246 s  ClockTime = 0 s

Time = 5s

smoothSolver:  Solving for Ux, Initial residual = 0.0162092, Final residual = 0.0010636, No Iterations 5
smoothSolver:  Solving for Uy, Initial residual = 0.362185, Final residual = 0.0267421, No Iterations 5
Pressure gradient source: uncorrected Ubar = 1.00265, pressure gradient = 0.000431768
GAMG:  Solving for p, Initial residual = 0.280943, Final residual = 0.0137802, No Iterations 8
time step continuity errors : sum local = 9.87228e-05, global = 3.90233e-18, cumulative = 4.52814e-18
Pressure gradient source: uncorrected Ubar = 1.00034, pressure gradient = 0.155456
smoothSolver:  Solving for omega, Initial residual = 0.00339582, Final residual = 8.09246e-05, No Iterations 1
smoothSolver:  Solving for k, Initial residual = 0.0234877, Final residual = 0.00140461, No Iterations 5
ExecutionTime = 0.021519 s  ClockTime = 0 s

Time = 6s

smoothSolver:  Solving for Ux, Initial residual = 0.0127679, Final residual = 0.000850109, No Iterations 5
smoothSolver:  Solving for Uy, Initial residual = 0.24524, Final residual = 0.0192165, No Iterations 4
Pressure gradient source: uncorrected Ubar = 1.00253, pressure gradient = -0.0142985
GAMG:  Solving for p, Initial residual = 0.387863, Final residual = 0.0262618, No Iterations 8
time step continuity errors : sum local = 8.32763e-05, global = 4.08863e-18, cumulative = 8.61677e-18
Pressure gradient source: uncorrected Ubar = 1.00033, pressure gradient = 0.13338
smoothSolver:  Solving for omega, Initial residual = 0.00227955, Final residual = 5.18297e-05, No Iterations 1
smoothSolver:  Solving for k, Initial residual = 0.0214748, Final residual = 0.00140765, No Iterations 5
ExecutionTime = 0.023654 s  ClockTime = 0 s

Time = 7s

smoothSolver:  Solving for Ux, Initial residual = 0.0103372, Final residual = 0.000693935, No Iterations 5
smoothSolver:  Solving for Uy, Initial residual = 0.134725, Final residual = 0.00816055, No Iterations 4
Pressure gradient source: uncorrected Ubar = 1.00184, pressure gradient = 0.0103278
GAMG:  Solving for p, Initial residual = 0.263657, Final residual = 0.0244861, No Iterations 7
time step continuity errors : sum local = 5.48202e-05, global = -1.34043e-18, cumulative = 7.27634e-18
Pressure gradient source: uncorrected Ubar = 1.00023, pressure gradient = 0.117769
smoothSolver:  Solving for omega, Initial residual = 0.00115058, Final residual = 2.98604e-05, No Iterations 1
smoothSolver:  Solving for k, Initial residual = 0.0195696, Final residual = 0.00133007, No Iterations 5
ExecutionTime = 0.025818 s  ClockTime = 0 s

Time = 8s

smoothSolver:  Solving for Ux, Initial residual = 0.00858395, Final residual = 0.000580496, No Iterations 5
smoothSolver:  Solving for Uy, Initial residual = 0.125118, Final residual = 0.00937337, No Iterations 4
Pressure gradient source: uncorrected Ubar = 1.00142, pressure gradient = 0.0226765
GAMG:  Solving for p, Initial residual = 0.121328, Final residual = 0.00736354, No Iterations 6
time step continuity errors : sum local = 2.02635e-05, global = -4.94093e-18, cumulative = 2.33541e-18
Pressure gradient source: uncorrected Ubar = 1.00018, pressure gradient = 0.105951
smoothSolver:  Solving for omega, Initial residual = 0.000680155, Final residual = 1.91387e-05, No Iterations 1
smoothSolver:  Solving for k, Initial residual = 0.0182281, Final residual = 0.00128331, No Iterations 5
ExecutionTime = 0.027967 s  ClockTime = 0 s

Time = 9s

smoothSolver:  Solving for Ux, Initial residual = 0.00723693, Final residual = 0.000492234, No Iterations 5
smoothSolver:  Solving for Uy, Initial residual = 0.143371, Final residual = 0.013885, No Iterations 4
Pressure gradient source: uncorrected Ubar = 1.00113, pressure gradient = 0.0307947
GAMG:  Solving for p, Initial residual = 0.113355, Final residual = 0.00650256, No Iterations 4
time step continuity errors : sum local = 1.59903e-05, global = -1.78608e-18, cumulative = 5.49331e-19
Pressure gradient source: uncorrected Ubar = 1.00014, pressure gradient = 0.0967987
smoothSolver:  Solving for omega, Initial residual = 0.000369499, Final residual = 1.15565e-05, No Iterations 1
smoothSolver:  Solving for k, Initial residual = 0.0169634, Final residual = 0.00126067, No Iterations 5
ExecutionTime = 0.030004 s  ClockTime = 0 s

Time = 10s

smoothSolver:  Solving for Ux, Initial residual = 0.00616739, Final residual = 0.000423054, No Iterations 5
smoothSolver:  Solving for Uy, Initial residual = 0.177083, Final residual = 0.0113293, No Iterations 5
Pressure gradient source: uncorrected Ubar = 1.00091, pressure gradient = 0.0362302
GAMG:  Solving for p, Initial residual = 0.119385, Final residual = 0.0112671, No Iterations 5
time step continuity errors : sum local = 2.54058e-05, global = 1.0525e-17, cumulative = 1.10744e-17
Pressure gradient source: uncorrected Ubar = 1.00011, pressure gradient = 0.0895654
smoothSolver:  Solving for omega, Initial residual = 0.000210668, Final residual = 7.83316e-06, No Iterations 1
smoothSolver:  Solving for k, Initial residual = 0.0159271, Final residual = 0.00121088, No Iterations 5
ExecutionTime = 0.032029 s  ClockTime = 0 s

Time = 11s

smoothSolver:  Solving for Ux, Initial residual = 0.0053064, Final residual = 0.000366735, No Iterations 5
smoothSolver:  Solving for Uy, Initial residual = 0.206325, Final residual = 0.0137529, No Iterations 5
Pressure gradient source: uncorrected Ubar = 1.00075, pressure gradient = 0.0398269
GAMG:  Solving for p, Initial residual = 0.122295, Final residual = 0.00824625, No Iterations 6
time step continuity errors : sum local = 1.3862e-05, global = -4.16306e-18, cumulative = 6.91129e-18
Pressure gradient source: uncorrected Ubar = 1.00009, pressure gradient = 0.0837333
smoothSolver:  Solving for omega, Initial residual = 0.000117902, Final residual = 5.19497e-06, No Iterations 1
smoothSolver:  Solving for k, Initial residual = 0.0149765, Final residual = 0.00111642, No Iterations 5
ExecutionTime = 0.034141 s  ClockTime = 0 s

Time = 12s

smoothSolver:  Solving for Ux, Initial residual = 0.00461655, Final residual = 0.000318733, No Iterations 5
smoothSolver:  Solving for Uy, Initial residual = 0.247245, Final residual = 0.0175749, No Iterations 5
Pressure gradient source: uncorrected Ubar = 1.00062, pressure gradient = 0.0423759
GAMG:  Solving for p, Initial residual = 0.135562, Final residual = 0.0127109, No Iterations 7
time step continuity errors : sum local = 1.61626e-05, global = -4.59865e-18, cumulative = 2.31264e-18
Pressure gradient source: uncorrected Ubar = 1.00007, pressure gradient = 0.07897
smoothSolver:  Solving for omega, Initial residual = 6.71834e-05, Final residual = 3.83777e-06, No Iterations 1
smoothSolver:  Solving for k, Initial residual = 0.0141337, Final residual = 0.00112864, No Iterations 5
ExecutionTime = 0.036388 s  ClockTime = 0 s

Time = 13s

smoothSolver:  Solving for Ux, Initial residual = 0.00403103, Final residual = 0.000279382, No Iterations 5
smoothSolver:  Solving for Uy, Initial residual = 0.249564, Final residual = 0.0183632, No Iterations 5
Pressure gradient source: uncorrected Ubar = 1.00052, pressure gradient = 0.0441565
GAMG:  Solving for p, Initial residual = 0.168065, Final residual = 0.0141862, No Iterations 7
time step continuity errors : sum local = 1.25745e-05, global = -3.75236e-19, cumulative = 1.93741e-18
Pressure gradient source: uncorrected Ubar = 1.00006, pressure gradient = 0.0750285
smoothSolver:  Solving for omega, Initial residual = 3.8557e-05, Final residual = 2.83246e-06, No Iterations 1
smoothSolver:  Solving for k, Initial residual = 0.0133764, Final residual = 0.00108859, No Iterations 5
ExecutionTime = 0.038554 s  ClockTime = 0 s

Time = 14s

smoothSolver:  Solving for Ux, Initial residual = 0.00354291, Final residual = 0.00024572, No Iterations 5
smoothSolver:  Solving for Uy, Initial residual = 0.220928, Final residual = 0.0154656, No Iterations 5
Pressure gradient source: uncorrected Ubar = 1.00045, pressure gradient = 0.0454092
GAMG:  Solving for p, Initial residual = 0.206124, Final residual = 0.019234, No Iterations 6
time step continuity errors : sum local = 1.17357e-05, global = -1.10093e-18, cumulative = 8.36475e-19
Pressure gradient source: uncorrected Ubar = 1.00005, pressure gradient = 0.0717294
smoothSolver:  Solving for omega, Initial residual = 2.24995e-05, Final residual = 2.26384e-06, No Iterations 1
smoothSolver:  Solving for k, Initial residual = 0.0126953, Final residual = 0.00099956, No Iterations 5
ExecutionTime = 0.040595 s  ClockTime = 0 s

Time = 15s

smoothSolver:  Solving for Ux, Initial residual = 0.00312053, Final residual = 0.000217427, No Iterations 5
smoothSolver:  Solving for Uy, Initial residual = 0.172896, Final residual = 0.0113627, No Iterations 5
Pressure gradient source: uncorrected Ubar = 1.00038, pressure gradient = 0.0463463
GAMG:  Solving for p, Initial residual = 0.226537, Final residual = 0.022068, No Iterations 6
time step continuity errors : sum local = 9.51303e-06, global = 1.64346e-18, cumulative = 2.47993e-18
Pressure gradient source: uncorrected Ubar = 1.00004, pressure gradient = 0.0689476
smoothSolver:  Solving for omega, Initial residual = 1.34766e-05, Final residual = 1.82539e-06, No Iterations 1
smoothSolver:  Solving for k, Initial residual = 0.0120654, Final residual = 0.00101884, No Iterations 5
ExecutionTime = 0.042635 s  ClockTime = 0 s

Time = 16s

smoothSolver:  Solving for Ux, Initial residual = 0.00276236, Final residual = 0.000192332, No Iterations 5
smoothSolver:  Solving for Uy, Initial residual = 0.132904, Final residual = 0.00940796, No Iterations 5
Pressure gradient source: uncorrected Ubar = 1.00033, pressure gradient = 0.0470183
GAMG:  Solving for p, Initial residual = 0.210822, Final residual = 0.0199362, No Iterations 6
time step continuity errors : sum local = 6.60985e-06, global = -2.80818e-18, cumulative = -3.28248e-19
Pressure gradient source: uncorrected Ubar = 1.00004, pressure gradient = 0.0665814
smoothSolver:  Solving for omega, Initial residual = 8.31821e-06, Final residual = 8.31821e-06, No Iterations 0
smoothSolver:  Solving for k, Initial residual = 0.0118651, Final residual = 0.00100083, No Iterations 5
ExecutionTime = 0.044879 s  ClockTime = 0 s

Time = 17s

smoothSolver:  Solving for Ux, Initial residual = 0.00245374, Final residual = 0.00017121, No Iterations 5
smoothSolver:  Solving for Uy, Initial residual = 0.116891, Final residual = 0.00812701, No Iterations 5
Pressure gradient source: uncorrected Ubar = 1.00029, pressure gradient = 0.0474794
GAMG:  Solving for p, Initial residual = 0.173322, Final residual = 0.0135286, No Iterations 6
time step continuity errors : sum local = 3.56807e-06, global = 6.74147e-18, cumulative = 6.41322e-18
Pressure gradient source: uncorrected Ubar = 1.00003, pressure gradient = 0.0645501
smoothSolver:  Solving for omega, Initial residual = 8.32058e-06, Final residual = 8.32058e-06, No Iterations 0
smoothSolver:  Solving for k, Initial residual = 0.0117176, Final residual = 0.000942809, No Iterations 5
ExecutionTime = 0.046956 s  ClockTime = 0 s

Time = 18s

smoothSolver:  Solving for Ux, Initial residual = 0.00219196, Final residual = 0.000152611, No Iterations 5
smoothSolver:  Solving for Uy, Initial residual = 0.112931, Final residual = 0.00766173, No Iterations 5
Pressure gradient source: uncorrected Ubar = 1.00025, pressure gradient = 0.0478809
GAMG:  Solving for p, Initial residual = 0.148598, Final residual = 0.0123214, No Iterations 4
time step continuity errors : sum local = 2.81942e-06, global = 1.67776e-18, cumulative = 8.09098e-18
Pressure gradient source: uncorrected Ubar = 1.00003, pressure gradient = 0.0628049
smoothSolver:  Solving for omega, Initial residual = 8.32277e-06, Final residual = 8.32277e-06, No Iterations 0
smoothSolver:  Solving for k, Initial residual = 0.011585, Final residual = 0.000995703, No Iterations 5
ExecutionTime = 0.048995 s  ClockTime = 0 s

Time = 19s

smoothSolver:  Solving for Ux, Initial residual = 0.00195932, Final residual = 0.000137161, No Iterations 5
smoothSolver:  Solving for Uy, Initial residual = 0.102298, Final residual = 0.0072095, No Iterations 5
Pressure gradient source: uncorrected Ubar = 1.00022, pressure gradient = 0.0481607
GAMG:  Solving for p, Initial residual = 0.114392, Final residual = 0.00732943, No Iterations 4
time step continuity errors : sum local = 1.54884e-06, global = -7.47986e-18, cumulative = 6.11125e-19
Pressure gradient source: uncorrected Ubar = 1.00002, pressure gradient = 0.0612942
smoothSolver:  Solving for omega, Initial residual = 8.32461e-06, Final residual = 8.32461e-06, No Iterations 0
smoothSolver:  Solving for k, Initial residual = 0.0114795, Final residual = 0.00100725, No Iterations 5
ExecutionTime = 0.051013 s  ClockTime = 0 s

Time = 20s

smoothSolver:  Solving for Ux, Initial residual = 0.00176084, Final residual = 0.000123507, No Iterations 5
smoothSolver:  Solving for Uy, Initial residual = 0.0982464, Final residual = 0.0074254, No Iterations 5
Pressure gradient source: uncorrected Ubar = 1.00019, pressure gradient = 0.0483836
GAMG:  Solving for p, Initial residual = 0.0817245, Final residual = 0.00400075, No Iterations 4
time step continuity errors : sum local = 8.43981e-07, global = -5.81765e-18, cumulative = -5.20652e-18
Pressure gradient source: uncorrected Ubar = 1.00002, pressure gradient = 0.0599824
smoothSolver:  Solving for omega, Initial residual = 8.32612e-06, Final residual = 8.32612e-06, No Iterations 0
smoothSolver:  Solving for k, Initial residual = 0.011387, Final residual = 0.000974915, No Iterations 5
ExecutionTime = 0.053152 s  ClockTime = 0 s

Time = 21s

smoothSolver:  Solving for Ux, Initial residual = 0.00158471, Final residual = 0.000111968, No Iterations 5
smoothSolver:  Solving for Uy, Initial residual = 0.0993229, Final residual = 0.00773805, No Iterations 5
Pressure gradient source: uncorrected Ubar = 1.00017, pressure gradient = 0.0485549
GAMG:  Solving for p, Initial residual = 0.0619943, Final residual = 0.0046781, No Iterations 4
time step continuity errors : sum local = 9.38202e-07, global = 2.46739e-19, cumulative = -4.95978e-18
Pressure gradient source: uncorrected Ubar = 1.00002, pressure gradient = 0.0588386
smoothSolver:  Solving for omega, Initial residual = 8.3274e-06, Final residual = 8.3274e-06, No Iterations 0
smoothSolver:  Solving for k, Initial residual = 0.0113004, Final residual = 0.00093259, No Iterations 5
ExecutionTime = 0.05525 s  ClockTime = 0 s

Time = 22s

smoothSolver:  Solving for Ux, Initial residual = 0.00143295, Final residual = 0.000101771, No Iterations 5
smoothSolver:  Solving for Uy, Initial residual = 0.101962, Final residual = 0.00785443, No Iterations 5
Pressure gradient source: uncorrected Ubar = 1.00015, pressure gradient = 0.0486803
GAMG:  Solving for p, Initial residual = 0.0543414, Final residual = 0.00522498, No Iterations 4
time step continuity errors : sum local = 1.00429e-06, global = 5.58762e-18, cumulative = 6.27841e-19
Pressure gradient source: uncorrected Ubar = 1.00002, pressure gradient = 0.0578369
smoothSolver:  Solving for omega, Initial residual = 8.32847e-06, Final residual = 8.32847e-06, No Iterations 0
smoothSolver:  Solving for k, Initial residual = 0.0112221, Final residual = 0.0010032, No Iterations 5
ExecutionTime = 0.05727 s  ClockTime = 0 s

Time = 23s

smoothSolver:  Solving for Ux, Initial residual = 0.00130212, Final residual = 9.30591e-05, No Iterations 5
smoothSolver:  Solving for Uy, Initial residual = 0.102366, Final residual = 0.00791147, No Iterations 5
Pressure gradient source: uncorrected Ubar = 1.00014, pressure gradient = 0.0487751
GAMG:  Solving for p, Initial residual = 0.0495569, Final residual = 0.0022306, No Iterations 4
time step continuity errors : sum local = 4.01722e-07, global = 2.77062e-19, cumulative = 9.04904e-19
Pressure gradient source: uncorrected Ubar = 1.00001, pressure gradient = 0.0569566
smoothSolver:  Solving for omega, Initial residual = 8.3295e-06, Final residual = 8.3295e-06, No Iterations 0
smoothSolver:  Solving for k, Initial residual = 0.0111567, Final residual = 0.000973905, No Iterations 5
ExecutionTime = 0.059198 s  ClockTime = 0 s

Time = 24s

smoothSolver:  Solving for Ux, Initial residual = 0.0011881, Final residual = 8.52e-05, No Iterations 5
smoothSolver:  Solving for Uy, Initial residual = 0.100838, Final residual = 0.00774479, No Iterations 5
Pressure gradient source: uncorrected Ubar = 1.00012, pressure gradient = 0.0488506
GAMG:  Solving for p, Initial residual = 0.0464331, Final residual = 0.00436406, No Iterations 3
time step continuity errors : sum local = 7.62931e-07, global = -2.42281e-19, cumulative = 6.62623e-19
Pressure gradient source: uncorrected Ubar = 1.00001, pressure gradient = 0.0561812
smoothSolver:  Solving for omega, Initial residual = 8.33045e-06, Final residual = 8.33045e-06, No Iterations 0
smoothSolver:  Solving for k, Initial residual = 0.0110929, Final residual = 0.000916611, No Iterations 5
ExecutionTime = 0.061101 s  ClockTime = 0 s

Time = 25s

smoothSolver:  Solving for Ux, Initial residual = 0.00108842, Final residual = 7.83689e-05, No Iterations 5
smoothSolver:  Solving for Uy, Initial residual = 0.0990838, Final residual = 0.0075654, No Iterations 5
Pressure gradient source: uncorrected Ubar = 1.00011, pressure gradient = 0.0489078
GAMG:  Solving for p, Initial residual = 0.0475716, Final residual = 0.00471513, No Iterations 6
time step continuity errors : sum local = 6.95652e-07, global = 9.70669e-18, cumulative = 1.03693e-17
Pressure gradient source: uncorrected Ubar = 1.00001, pressure gradient = 0.055496
smoothSolver:  Solving for omega, Initial residual = 8.33099e-06, Final residual = 8.33099e-06, No Iterations 0
smoothSolver:  Solving for k, Initial residual = 0.011037, Final residual = 0.000940019, No Iterations 5
ExecutionTime = 0.063108 s  ClockTime = 0 s

Time = 26s

smoothSolver:  Solving for Ux, Initial residual = 0.0010011, Final residual = 7.21235e-05, No Iterations 5
smoothSolver:  Solving for Uy, Initial residual = 0.101289, Final residual = 0.00775264, No Iterations 5
Pressure gradient source: uncorrected Ubar = 1.0001, pressure gradient = 0.0489508
GAMG:  Solving for p, Initial residual = 0.05414, Final residual = 0.00485539, No Iterations 5
time step continuity errors : sum local = 6.76718e-07, global = 9.09781e-19, cumulative = 1.12791e-17
Pressure gradient source: uncorrected Ubar = 1.00001, pressure gradient = 0.0548889
smoothSolver:  Solving for omega, Initial residual = 8.33174e-06, Final residual = 8.33174e-06, No Iterations 0
smoothSolver:  Solving for k, Initial residual = 0.010981, Final residual = 0.00094219, No Iterations 5
ExecutionTime = 0.065064 s  ClockTime = 0 s

Time = 27s

smoothSolver:  Solving for Ux, Initial residual = 0.000922232, Final residual = 6.66339e-05, No Iterations 5
smoothSolver:  Solving for Uy, Initial residual = 0.094327, Final residual = 0.00724311, No Iterations 5
Pressure gradient source: uncorrected Ubar = 1.00009, pressure gradient = 0.0489825
GAMG:  Solving for p, Initial residual = 0.0561992, Final residual = 0.00251855, No Iterations 6
time step continuity errors : sum local = 2.90366e-07, global = -4.3171e-18, cumulative = 6.96199e-18
Pressure gradient source: uncorrected Ubar = 1.00001, pressure gradient = 0.0543495
smoothSolver:  Solving for omega, Initial residual = 8.33217e-06, Final residual = 8.33217e-06, No Iterations 0
smoothSolver:  Solving for k, Initial residual = 0.0109349, Final residual = 0.000946042, No Iterations 5
ExecutionTime = 0.067105 s  ClockTime = 0 s

Time = 28s

smoothSolver:  Solving for Ux, Initial residual = 0.000851349, Final residual = 6.15312e-05, No Iterations 5
smoothSolver:  Solving for Uy, Initial residual = 0.0881324, Final residual = 0.00676299, No Iterations 5
Pressure gradient source: uncorrected Ubar = 1.00008, pressure gradient = 0.0490068
GAMG:  Solving for p, Initial residual = 0.0581967, Final residual = 0.00378488, No Iterations 6
time step continuity errors : sum local = 3.78734e-07, global = 2.47307e-18, cumulative = 9.43507e-18
Pressure gradient source: uncorrected Ubar = 1.00001, pressure gradient = 0.0538693
smoothSolver:  Solving for omega, Initial residual = 8.33265e-06, Final residual = 8.33265e-06, No Iterations 0
smoothSolver:  Solving for k, Initial residual = 0.0108899, Final residual = 0.000918349, No Iterations 5
ExecutionTime = 0.069193 s  ClockTime = 0 s

Time = 29s

smoothSolver:  Solving for Ux, Initial residual = 0.000787216, Final residual = 5.70327e-05, No Iterations 5
smoothSolver:  Solving for Uy, Initial residual = 0.0815098, Final residual = 0.00633755, No Iterations 5
Pressure gradient source: uncorrected Ubar = 1.00007, pressure gradient = 0.0490252
GAMG:  Solving for p, Initial residual = 0.0577094, Final residual = 0.00411118, No Iterations 6
time step continuity errors : sum local = 3.54711e-07, global = 6.41995e-19, cumulative = 1.00771e-17
Pressure gradient source: uncorrected Ubar = 1.00001, pressure gradient = 0.0534409
smoothSolver:  Solving for omega, Initial residual = 8.33307e-06, Final residual = 8.33307e-06, No Iterations 0
smoothSolver:  Solving for k, Initial residual = 0.0108527, Final residual = 0.00094422, No Iterations 5
ExecutionTime = 0.071624 s  ClockTime = 0 s

Time = 30s

smoothSolver:  Solving for Ux, Initial residual = 0.000730763, Final residual = 5.28922e-05, No Iterations 5
smoothSolver:  Solving for Uy, Initial residual = 0.0765767, Final residual = 0.00597737, No Iterations 5
Pressure gradient source: uncorrected Ubar = 1.00007, pressure gradient = 0.0490381
GAMG:  Solving for p, Initial residual = 0.0558847, Final residual = 0.00398534, No Iterations 6
time step continuity errors : sum local = 2.9938e-07, global = -1.36067e-18, cumulative = 8.71639e-18
Pressure gradient source: uncorrected Ubar = 1.00001, pressure gradient = 0.0530577
smoothSolver:  Solving for omega, Initial residual = 8.33343e-06, Final residual = 8.33343e-06, No Iterations 0
smoothSolver:  Solving for k, Initial residual = 0.0108136, Final residual = 0.000912007, No Iterations 5
ExecutionTime = 0.073864 s  ClockTime = 0 s

Time = 31s

smoothSolver:  Solving for Ux, Initial residual = 0.000678695, Final residual = 4.92139e-05, No Iterations 5
smoothSolver:  Solving for Uy, Initial residual = 0.0728316, Final residual = 0.00568047, No Iterations 5
Pressure gradient source: uncorrected Ubar = 1.00006, pressure gradient = 0.0490473
GAMG:  Solving for p, Initial residual = 0.0530523, Final residual = 0.00383958, No Iterations 6
time step continuity errors : sum local = 2.53718e-07, global = 3.35745e-18, cumulative = 1.20738e-17
Pressure gradient source: uncorrected Ubar = 1.00001, pressure gradient = 0.0527143
smoothSolver:  Solving for omega, Initial residual = 8.33376e-06, Final residual = 8.33376e-06, No Iterations 0
smoothSolver:  Solving for k, Initial residual = 0.0107745, Final residual = 0.000908427, No Iterations 5
ExecutionTime = 0.075935 s  ClockTime = 0 s

Time = 32s

smoothSolver:  Solving for Ux, Initial residual = 0.000632166, Final residual = 4.59499e-05, No Iterations 5
smoothSolver:  Solving for Uy, Initial residual = 0.0709377, Final residual = 0.00548727, No Iterations 5
Pressure gradient source: uncorrected Ubar = 1.00006, pressure gradient = 0.0490534
GAMG:  Solving for p, Initial residual = 0.0503077, Final residual = 0.00348752, No Iterations 6
time step continuity errors : sum local = 2.04666e-07, global = -3.41315e-18, cumulative = 8.66069e-18
Pressure gradient source: uncorrected Ubar = 1, pressure gradient = 0.052406
smoothSolver:  Solving for omega, Initial residual = 8.33405e-06, Final residual = 8.33405e-06, No Iterations 0
smoothSolver:  Solving for k, Initial residual = 0.0107336, Final residual = 0.000900664, No Iterations 5
ExecutionTime = 0.077923 s  ClockTime = 0 s

Time = 33s

smoothSolver:  Solving for Ux, Initial residual = 0.000589359, Final residual = 4.29617e-05, No Iterations 5
smoothSolver:  Solving for Uy, Initial residual = 0.0698561, Final residual = 0.00537144, No Iterations 5
Pressure gradient source: uncorrected Ubar = 1.00005, pressure gradient = 0.0490572
GAMG:  Solving for p, Initial residual = 0.0474565, Final residual = 0.0027224, No Iterations 6
time step continuity errors : sum local = 1.42627e-07, global = -3.84422e-18, cumulative = 4.81647e-18
Pressure gradient source: uncorrected Ubar = 1, pressure gradient = 0.0521287
smoothSolver:  Solving for omega, Initial residual = 8.3343e-06, Final residual = 8.3343e-06, No Iterations 0
smoothSolver:  Solving for k, Initial residual = 0.0107062, Final residual = 0.000903927, No Iterations 5
ExecutionTime = 0.0799 s  ClockTime = 0 s

Time = 34s

smoothSolver:  Solving for Ux, Initial residual = 0.00055031, Final residual = 4.02761e-05, No Iterations 5
smoothSolver:  Solving for Uy, Initial residual = 0.0689715, Final residual = 0.00525967, No Iterations 5
Pressure gradient source: uncorrected Ubar = 1.00005, pressure gradient = 0.0490594
GAMG:  Solving for p, Initial residual = 0.0450469, Final residual = 0.00414728, No Iterations 4
time step continuity errors : sum local = 1.92797e-07, global = -1.24139e-17, cumulative = -7.5974e-18
Pressure gradient source: uncorrected Ubar = 1, pressure gradient = 0.0518787
smoothSolver:  Solving for omega, Initial residual = 8.33453e-06, Final residual = 8.33453e-06, No Iterations 0
smoothSolver:  Solving for k, Initial residual = 0.0106728, Final residual = 0.000892627, No Iterations 5
ExecutionTime = 0.08187 s  ClockTime = 0 s

Time = 35s

smoothSolver:  Solving for Ux, Initial residual = 0.000515015, Final residual = 3.78416e-05, No Iterations 5
smoothSolver:  Solving for Uy, Initial residual = 0.0691987, Final residual = 0.00530928, No Iterations 5
Pressure gradient source: uncorrected Ubar = 1.00004, pressure gradient = 0.04906
GAMG:  Solving for p, Initial residual = 0.0435595, Final residual = 0.00389362, No Iterations 4
time step continuity errors : sum local = 1.64085e-07, global = 1.16689e-17, cumulative = 4.07154e-18
Pressure gradient source: uncorrected Ubar = 1, pressure gradient = 0.0516529
smoothSolver:  Solving for omega, Initial residual = 8.33473e-06, Final residual = 8.33473e-06, No Iterations 0
smoothSolver:  Solving for k, Initial residual = 0.0106388, Final residual = 0.000909915, No Iterations 5
ExecutionTime = 0.083894 s  ClockTime = 0 s

Time = 36s

smoothSolver:  Solving for Ux, Initial residual = 0.000482853, Final residual = 3.56058e-05, No Iterations 5
smoothSolver:  Solving for Uy, Initial residual = 0.0682572, Final residual = 0.00521262, No Iterations 5
Pressure gradient source: uncorrected Ubar = 1.00004, pressure gradient = 0.0490595
GAMG:  Solving for p, Initial residual = 0.0424955, Final residual = 0.00374633, No Iterations 4
time step continuity errors : sum local = 1.42274e-07, global = 1.31931e-18, cumulative = 5.39085e-18
Pressure gradient source: uncorrected Ubar = 1, pressure gradient = 0.0514487
smoothSolver:  Solving for omega, Initial residual = 8.33488e-06, Final residual = 8.33488e-06, No Iterations 0
smoothSolver:  Solving for k, Initial residual = 0.0106157, Final residual = 0.000914175, No Iterations 5
ExecutionTime = 0.086034 s  ClockTime = 0 s

Time = 37s

smoothSolver:  Solving for Ux, Initial residual = 0.000453929, Final residual = 3.35741e-05, No Iterations 5
smoothSolver:  Solving for Uy, Initial residual = 0.066213, Final residual = 0.00506374, No Iterations 5
Pressure gradient source: uncorrected Ubar = 1.00004, pressure gradient = 0.0490582
GAMG:  Solving for p, Initial residual = 0.0416107, Final residual = 0.0036091, No Iterations 4
time step continuity errors : sum local = 1.26915e-07, global = 5.70822e-18, cumulative = 1.10991e-17
Pressure gradient source: uncorrected Ubar = 1, pressure gradient = 0.0512637
smoothSolver:  Solving for omega, Initial residual = 8.33503e-06, Final residual = 8.33503e-06, No Iterations 0
smoothSolver:  Solving for k, Initial residual = 0.0105948, Final residual = 0.000922754, No Iterations 5
ExecutionTime = 0.08818 s  ClockTime = 0 s

Time = 38s

smoothSolver:  Solving for Ux, Initial residual = 0.000427699, Final residual = 3.17875e-05, No Iterations 5
smoothSolver:  Solving for Uy, Initial residual = 0.0635951, Final residual = 0.0049223, No Iterations 5
Pressure gradient source: uncorrected Ubar = 1.00003, pressure gradient = 0.0490562
GAMG:  Solving for p, Initial residual = 0.0410001, Final residual = 0.00312004, No Iterations 4
time step continuity errors : sum local = 9.99565e-08, global = -1.14932e-17, cumulative = -3.94134e-19
Pressure gradient source: uncorrected Ubar = 1, pressure gradient = 0.0510957
smoothSolver:  Solving for omega, Initial residual = 8.33518e-06, Final residual = 8.33518e-06, No Iterations 0
smoothSolver:  Solving for k, Initial residual = 0.0105625, Final residual = 0.000866666, No Iterations 5
ExecutionTime = 0.090243 s  ClockTime = 0 s

Time = 39s

smoothSolver:  Solving for Ux, Initial residual = 0.000403567, Final residual = 3.01864e-05, No Iterations 5
smoothSolver:  Solving for Uy, Initial residual = 0.0611237, Final residual = 0.00483553, No Iterations 5
Pressure gradient source: uncorrected Ubar = 1.00003, pressure gradient = 0.0490538
GAMG:  Solving for p, Initial residual = 0.040121, Final residual = 0.00238869, No Iterations 4
time step continuity errors : sum local = 6.95676e-08, global = -1.01436e-18, cumulative = -1.40849e-18
Pressure gradient source: uncorrected Ubar = 1, pressure gradient = 0.050943
smoothSolver:  Solving for omega, Initial residual = 8.33533e-06, Final residual = 8.33533e-06, No Iterations 0
smoothSolver:  Solving for k, Initial residual = 0.0105378, Final residual = 0.000902531, No Iterations 5
ExecutionTime = 0.092285 s  ClockTime = 0 s

Time = 40s

smoothSolver:  Solving for Ux, Initial residual = 0.000381428, Final residual = 2.87545e-05, No Iterations 5
smoothSolver:  Solving for Uy, Initial residual = 0.0594122, Final residual = 0.00481255, No Iterations 5
Pressure gradient source: uncorrected Ubar = 1.00003, pressure gradient = 0.049051
GAMG:  Solving for p, Initial residual = 0.0390071, Final residual = 0.00385274, No Iterations 3
time step continuity errors : sum local = 1.07408e-07, global = 1.19331e-18, cumulative = -2.15188e-19
Pressure gradient source: uncorrected Ubar = 1, pressure gradient = 0.0508038
smoothSolver:  Solving for omega, Initial residual = 8.33547e-06, Final residual = 8.33547e-06, No Iterations 0
smoothSolver:  Solving for k, Initial residual = 0.0105222, Final residual = 0.000917636, No Iterations 5
ExecutionTime = 0.094274 s  ClockTime = 0 s

Time = 41s

smoothSolver:  Solving for Ux, Initial residual = 0.000361223, Final residual = 2.74632e-05, No Iterations 5
smoothSolver:  Solving for Uy, Initial residual = 0.0585908, Final residual = 0.00487624, No Iterations 5
Pressure gradient source: uncorrected Ubar = 1.00003, pressure gradient = 0.049048
GAMG:  Solving for p, Initial residual = 0.036907, Final residual = 0.00226893, No Iterations 4
time step continuity errors : sum local = 5.75218e-08, global = -3.32478e-18, cumulative = -3.53997e-18
Pressure gradient source: uncorrected Ubar = 1, pressure gradient = 0.0506769
smoothSolver:  Solving for omega, Initial residual = 8.33556e-06, Final residual = 8.33556e-06, No Iterations 0
smoothSolver:  Solving for k, Initial residual = 0.0104982, Final residual = 0.000877597, No Iterations 5
ExecutionTime = 0.096323 s  ClockTime = 0 s

Time = 42s

smoothSolver:  Solving for Ux, Initial residual = 0.000342889, Final residual = 2.63066e-05, No Iterations 5
smoothSolver:  Solving for Uy, Initial residual = 0.0573568, Final residual = 0.00480177, No Iterations 5
Pressure gradient source: uncorrected Ubar = 1.00002, pressure gradient = 0.0490449
GAMG:  Solving for p, Initial residual = 0.0362792, Final residual = 0.00347756, No Iterations 3
time step continuity errors : sum local = 8.28431e-08, global = 1.0672e-18, cumulative = -2.47277e-18
Pressure gradient source: uncorrected Ubar = 1, pressure gradient = 0.050561
smoothSolver:  Solving for omega, Initial residual = 8.33566e-06, Final residual = 8.33566e-06, No Iterations 0
smoothSolver:  Solving for k, Initial residual = 0.0104758, Final residual = 0.000894977, No Iterations 5
ExecutionTime = 0.098273 s  ClockTime = 0 s

Time = 43s

smoothSolver:  Solving for Ux, Initial residual = 0.000326255, Final residual = 2.52784e-05, No Iterations 5
smoothSolver:  Solving for Uy, Initial residual = 0.0555921, Final residual = 0.00473865, No Iterations 5
Pressure gradient source: uncorrected Ubar = 1.00002, pressure gradient = 0.0490416
GAMG:  Solving for p, Initial residual = 0.0339233, Final residual = 0.00160389, No Iterations 4
time step continuity errors : sum local = 3.56791e-08, global = 4.33616e-18, cumulative = 1.86339e-18
Pressure gradient source: uncorrected Ubar = 1, pressure gradient = 0.0504549
smoothSolver:  Solving for omega, Initial residual = 8.33573e-06, Final residual = 8.33573e-06, No Iterations 0
smoothSolver:  Solving for k, Initial residual = 0.0104536, Final residual = 0.000864531, No Iterations 5
ExecutionTime = 0.100291 s  ClockTime = 0 s

Time = 44s

smoothSolver:  Solving for Ux, Initial residual = 0.000311424, Final residual = 2.43712e-05, No Iterations 5
smoothSolver:  Solving for Uy, Initial residual = 0.0539953, Final residual = 0.0046112, No Iterations 5
Pressure gradient source: uncorrected Ubar = 1.00002, pressure gradient = 0.0490382
GAMG:  Solving for p, Initial residual = 0.0328228, Final residual = 0.00286705, No Iterations 3
time step continuity errors : sum local = 5.90074e-08, global = 5.00299e-18, cumulative = 6.86639e-18
Pressure gradient source: uncorrected Ubar = 1, pressure gradient = 0.0503576
smoothSolver:  Solving for omega, Initial residual = 8.33581e-06, Final residual = 8.33581e-06, No Iterations 0
smoothSolver:  Solving for k, Initial residual = 0.0104353, Final residual = 0.000900438, No Iterations 5
ExecutionTime = 0.102359 s  ClockTime = 0 s

Time = 45s

smoothSolver:  Solving for Ux, Initial residual = 0.000297945, Final residual = 2.35772e-05, No Iterations 5
smoothSolver:  Solving for Uy, Initial residual = 0.0516625, Final residual = 0.00448415, No Iterations 5
Pressure gradient source: uncorrected Ubar = 1.00002, pressure gradient = 0.0490349
GAMG:  Solving for p, Initial residual = 0.0308846, Final residual = 0.00297585, No Iterations 3
time step continuity errors : sum local = 5.70201e-08, global = 2.29432e-18, cumulative = 9.16071e-18
Pressure gradient source: uncorrected Ubar = 1, pressure gradient = 0.0502683
smoothSolver:  Solving for omega, Initial residual = 8.33586e-06, Final residual = 8.33586e-06, No Iterations 0
smoothSolver:  Solving for k, Initial residual = 0.0104155, Final residual = 0.000896965, No Iterations 5
ExecutionTime = 0.104488 s  ClockTime = 0 s

Time = 46s

smoothSolver:  Solving for Ux, Initial residual = 0.000285733, Final residual = 2.29093e-05, No Iterations 5
smoothSolver:  Solving for Uy, Initial residual = 0.0501347, Final residual = 0.00434633, No Iterations 5
Pressure gradient source: uncorrected Ubar = 1.00002, pressure gradient = 0.0490316
GAMG:  Solving for p, Initial residual = 0.0296118, Final residual = 0.00105046, No Iterations 4
time step continuity errors : sum local = 1.82627e-08, global = 6.41551e-18, cumulative = 1.55762e-17
Pressure gradient source: uncorrected Ubar = 1, pressure gradient = 0.0501862
smoothSolver:  Solving for omega, Initial residual = 8.3359e-06, Final residual = 8.3359e-06, No Iterations 0
smoothSolver:  Solving for k, Initial residual = 0.0103986, Final residual = 0.000876964, No Iterations 5
ExecutionTime = 0.106553 s  ClockTime = 0 s

Time = 47s

smoothSolver:  Solving for Ux, Initial residual = 0.000274776, Final residual = 2.23625e-05, No Iterations 5
smoothSolver:  Solving for Uy, Initial residual = 0.0487966, Final residual = 0.00421569, No Iterations 5
Pressure gradient source: uncorrected Ubar = 1.00002, pressure gradient = 0.0490283
GAMG:  Solving for p, Initial residual = 0.0287414, Final residual = 0.00285715, No Iterations 3
time step continuity errors : sum local = 4.87574e-08, global = -2.4825e-18, cumulative = 1.30937e-17
Pressure gradient source: uncorrected Ubar = 1, pressure gradient = 0.0501107
smoothSolver:  Solving for omega, Initial residual = 8.33596e-06, Final residual = 8.33596e-06, No Iterations 0
smoothSolver:  Solving for k, Initial residual = 0.0103796, Final residual = 0.00089591, No Iterations 5
ExecutionTime = 0.10852 s  ClockTime = 0 s

Time = 48s

smoothSolver:  Solving for Ux, Initial residual = 0.000264979, Final residual = 2.19207e-05, No Iterations 5
smoothSolver:  Solving for Uy, Initial residual = 0.0466801, Final residual = 0.00405478, No Iterations 5
Pressure gradient source: uncorrected Ubar = 1.00002, pressure gradient = 0.0490251
GAMG:  Solving for p, Initial residual = 0.0272949, Final residual = 0.00126123, No Iterations 4
time step continuity errors : sum local = 2.13224e-08, global = -4.1226e-18, cumulative = 8.97112e-18
Pressure gradient source: uncorrected Ubar = 1, pressure gradient = 0.050041
smoothSolver:  Solving for omega, Initial residual = 8.33597e-06, Final residual = 8.33597e-06, No Iterations 0
smoothSolver:  Solving for k, Initial residual = 0.0103629, Final residual = 0.000880891, No Iterations 5
ExecutionTime = 0.110515 s  ClockTime = 0 s

Time = 49s

smoothSolver:  Solving for Ux, Initial residual = 0.000256301, Final residual = 2.15771e-05, No Iterations 5
smoothSolver:  Solving for Uy, Initial residual = 0.0462987, Final residual = 0.00395605, No Iterations 5
Pressure gradient source: uncorrected Ubar = 1.00002, pressure gradient = 0.0490219
GAMG:  Solving for p, Initial residual = 0.0271794, Final residual = 0.00229, No Iterations 4
time step continuity errors : sum local = 3.37668e-08, global = -5.47398e-19, cumulative = 8.42373e-18
Pressure gradient source: uncorrected Ubar = 1, pressure gradient = 0.0499767
smoothSolver:  Solving for omega, Initial residual = 8.33602e-06, Final residual = 8.33602e-06, No Iterations 0
smoothSolver:  Solving for k, Initial residual = 0.0103407, Final residual = 0.000849964, No Iterations 5
ExecutionTime = 0.112462 s  ClockTime = 0 s

Time = 50s

smoothSolver:  Solving for Ux, Initial residual = 0.000248747, Final residual = 2.12762e-05, No Iterations 5
smoothSolver:  Solving for Uy, Initial residual = 0.0442726, Final residual = 0.00384287, No Iterations 5
Pressure gradient source: uncorrected Ubar = 1.00001, pressure gradient = 0.0490189
GAMG:  Solving for p, Initial residual = 0.026448, Final residual = 0.00216231, No Iterations 4
time step continuity errors : sum local = 3.07135e-08, global = 1.53116e-21, cumulative = 8.42526e-18
Pressure gradient source: uncorrected Ubar = 1, pressure gradient = 0.0499173
smoothSolver:  Solving for omega, Initial residual = 8.33604e-06, Final residual = 8.33604e-06, No Iterations 0
smoothSolver:  Solving for k, Initial residual = 0.0103275, Final residual = 0.000904653, No Iterations 5
ExecutionTime = 0.114408 s  ClockTime = 0 s

Time = 51s

smoothSolver:  Solving for Ux, Initial residual = 0.000242139, Final residual = 2.09612e-05, No Iterations 5
smoothSolver:  Solving for Uy, Initial residual = 0.0429064, Final residual = 0.00366162, No Iterations 5
Pressure gradient source: uncorrected Ubar = 1.00001, pressure gradient = 0.0490159
GAMG:  Solving for p, Initial residual = 0.0254998, Final residual = 0.00218498, No Iterations 4
time step continuity errors : sum local = 2.95447e-08, global = -1.34331e-18, cumulative = 7.08195e-18
Pressure gradient source: uncorrected Ubar = 1, pressure gradient = 0.0498622
smoothSolver:  Solving for omega, Initial residual = 8.33606e-06, Final residual = 8.33606e-06, No Iterations 0
smoothSolver:  Solving for k, Initial residual = 0.0103201, Final residual = 0.00090773, No Iterations 5
ExecutionTime = 0.116364 s  ClockTime = 0 s

Time = 52s

smoothSolver:  Solving for Ux, Initial residual = 0.000235904, Final residual = 2.06344e-05, No Iterations 5
smoothSolver:  Solving for Uy, Initial residual = 0.0408285, Final residual = 0.00346777, No Iterations 5
Pressure gradient source: uncorrected Ubar = 1.00001, pressure gradient = 0.0490131
GAMG:  Solving for p, Initial residual = 0.0246775, Final residual = 0.0022555, No Iterations 4
time step continuity errors : sum local = 2.95382e-08, global = -2.87354e-18, cumulative = 4.20841e-18
Pressure gradient source: uncorrected Ubar = 1, pressure gradient = 0.0498112
smoothSolver:  Solving for omega, Initial residual = 8.33608e-06, Final residual = 8.33608e-06, No Iterations 0
smoothSolver:  Solving for k, Initial residual = 0.0103082, Final residual = 0.000912921, No Iterations 5
ExecutionTime = 0.118346 s  ClockTime = 0 s

Time = 53s

smoothSolver:  Solving for Ux, Initial residual = 0.000229927, Final residual = 2.02976e-05, No Iterations 5
smoothSolver:  Solving for Uy, Initial residual = 0.0389937, Final residual = 0.0032664, No Iterations 5
Pressure gradient source: uncorrected Ubar = 1.00001, pressure gradient = 0.0490103
GAMG:  Solving for p, Initial residual = 0.0239025, Final residual = 0.00236604, No Iterations 4
time step continuity errors : sum local = 3.02767e-08, global = 2.49125e-18, cumulative = 6.69967e-18
Pressure gradient source: uncorrected Ubar = 1, pressure gradient = 0.0497639
smoothSolver:  Solving for omega, Initial residual = 8.33608e-06, Final residual = 8.33608e-06, No Iterations 0
smoothSolver:  Solving for k, Initial residual = 0.010284, Final residual = 0.000832981, No Iterations 5
ExecutionTime = 0.120563 s  ClockTime = 0 s

Time = 54s

smoothSolver:  Solving for Ux, Initial residual = 0.000224093, Final residual = 1.99551e-05, No Iterations 5
smoothSolver:  Solving for Uy, Initial residual = 0.0371209, Final residual = 0.0030657, No Iterations 5
Pressure gradient source: uncorrected Ubar = 1.00001, pressure gradient = 0.0490077
GAMG:  Solving for p, Initial residual = 0.0231585, Final residual = 0.0019494, No Iterations 4
time step continuity errors : sum local = 2.48929e-08, global = 8.25879e-18, cumulative = 1.49585e-17
Pressure gradient source: uncorrected Ubar = 1, pressure gradient = 0.0497199
smoothSolver:  Solving for omega, Initial residual = 8.33609e-06, Final residual = 8.33609e-06, No Iterations 0
smoothSolver:  Solving for k, Initial residual = 0.0102716, Final residual = 0.000882144, No Iterations 5
ExecutionTime = 0.122632 s  ClockTime = 0 s

Time = 55s

smoothSolver:  Solving for Ux, Initial residual = 0.000218393, Final residual = 1.96202e-05, No Iterations 5
smoothSolver:  Solving for Uy, Initial residual = 0.0353911, Final residual = 0.00286469, No Iterations 5
Pressure gradient source: uncorrected Ubar = 1.00001, pressure gradient = 0.0490052
GAMG:  Solving for p, Initial residual = 0.0224073, Final residual = 0.00219721, No Iterations 4
time step continuity errors : sum local = 2.6814e-08, global = 6.32228e-18, cumulative = 2.12807e-17
Pressure gradient source: uncorrected Ubar = 1, pressure gradient = 0.0496789
smoothSolver:  Solving for omega, Initial residual = 8.33609e-06, Final residual = 8.33609e-06, No Iterations 0
smoothSolver:  Solving for k, Initial residual = 0.0102599, Final residual = 0.000886732, No Iterations 5
ExecutionTime = 0.124627 s  ClockTime = 0 s

Time = 56s

smoothSolver:  Solving for Ux, Initial residual = 0.000212827, Final residual = 1.92817e-05, No Iterations 5
smoothSolver:  Solving for Uy, Initial residual = 0.0334891, Final residual = 0.0026839, No Iterations 5
Pressure gradient source: uncorrected Ubar = 1.00001, pressure gradient = 0.0490027
GAMG:  Solving for p, Initial residual = 0.0218723, Final residual = 0.00218098, No Iterations 4
time step continuity errors : sum local = 2.57771e-08, global = 2.46155e-18, cumulative = 2.37423e-17
Pressure gradient source: uncorrected Ubar = 1, pressure gradient = 0.0496408
smoothSolver:  Solving for omega, Initial residual = 8.33609e-06, Final residual = 8.33609e-06, No Iterations 0
smoothSolver:  Solving for k, Initial residual = 0.0102494, Final residual = 0.000902137, No Iterations 5
ExecutionTime = 0.126598 s  ClockTime = 0 s

Time = 57s

smoothSolver:  Solving for Ux, Initial residual = 0.000207389, Final residual = 1.89402e-05, No Iterations 5
smoothSolver:  Solving for Uy, Initial residual = 0.0317849, Final residual = 0.00250744, No Iterations 5
Pressure gradient source: uncorrected Ubar = 1.00001, pressure gradient = 0.0490004
GAMG:  Solving for p, Initial residual = 0.0212587, Final residual = 0.00171076, No Iterations 5
time step continuity errors : sum local = 1.92798e-08, global = -7.23418e-18, cumulative = 1.65081e-17
Pressure gradient source: uncorrected Ubar = 1, pressure gradient = 0.0496053
smoothSolver:  Solving for omega, Initial residual = 8.33609e-06, Final residual = 8.33609e-06, No Iterations 0
smoothSolver:  Solving for k, Initial residual = 0.0102333, Final residual = 0.000853976, No Iterations 5
ExecutionTime = 0.12854 s  ClockTime = 0 s

Time = 58s

smoothSolver:  Solving for Ux, Initial residual = 0.000202078, Final residual = 1.85939e-05, No Iterations 5
smoothSolver:  Solving for Uy, Initial residual = 0.0306039, Final residual = 0.00240641, No Iterations 5
Pressure gradient source: uncorrected Ubar = 1.00001, pressure gradient = 0.0489982
GAMG:  Solving for p, Initial residual = 0.0202642, Final residual = 0.00142006, No Iterations 4
time step continuity errors : sum local = 1.54884e-08, global = 4.83447e-18, cumulative = 2.13426e-17
Pressure gradient source: uncorrected Ubar = 1, pressure gradient = 0.0495721
smoothSolver:  Solving for omega, Initial residual = 8.33609e-06, Final residual = 8.33609e-06, No Iterations 0
smoothSolver:  Solving for k, Initial residual = 0.0102272, Final residual = 0.000913234, No Iterations 5
ExecutionTime = 0.130498 s  ClockTime = 0 s

Time = 59s

smoothSolver:  Solving for Ux, Initial residual = 0.000196892, Final residual = 1.8244e-05, No Iterations 5
smoothSolver:  Solving for Uy, Initial residual = 0.0284894, Final residual = 0.00217479, No Iterations 5
Pressure gradient source: uncorrected Ubar = 1.00001, pressure gradient = 0.048996
GAMG:  Solving for p, Initial residual = 0.0198179, Final residual = 0.00140145, No Iterations 4
time step continuity errors : sum local = 1.43255e-08, global = -5.14001e-18, cumulative = 1.62026e-17
Pressure gradient source: uncorrected Ubar = 1, pressure gradient = 0.049541
smoothSolver:  Solving for omega, Initial residual = 8.33609e-06, Final residual = 8.33609e-06, No Iterations 0
smoothSolver:  Solving for k, Initial residual = 0.0102117, Final residual = 0.000880583, No Iterations 5
ExecutionTime = 0.132456 s  ClockTime = 0 s

Time = 60s

smoothSolver:  Solving for Ux, Initial residual = 0.000191959, Final residual = 1.78917e-05, No Iterations 5
smoothSolver:  Solving for Uy, Initial residual = 0.0265597, Final residual = 0.00200936, No Iterations 5
Pressure gradient source: uncorrected Ubar = 1.00001, pressure gradient = 0.048994
GAMG:  Solving for p, Initial residual = 0.0193517, Final residual = 0.00123144, No Iterations 4
time step continuity errors : sum local = 1.21255e-08, global = 1.72989e-17, cumulative = 3.35014e-17
Pressure gradient source: uncorrected Ubar = 1, pressure gradient = 0.049512
smoothSolver:  Solving for omega, Initial residual = 8.33608e-06, Final residual = 8.33608e-06, No Iterations 0
smoothSolver:  Solving for k, Initial residual = 0.0101899, Final residual = 0.000817197, No Iterations 5
ExecutionTime = 0.134507 s  ClockTime = 0 s

Time = 61s

smoothSolver:  Solving for Ux, Initial residual = 0.000187134, Final residual = 1.7538e-05, No Iterations 5
smoothSolver:  Solving for Uy, Initial residual = 0.0253111, Final residual = 0.00187071, No Iterations 5
Pressure gradient source: uncorrected Ubar = 1.00001, pressure gradient = 0.048992
GAMG:  Solving for p, Initial residual = 0.018957, Final residual = 0.0010118, No Iterations 4
time step continuity errors : sum local = 9.64818e-09, global = -3.91608e-18, cumulative = 2.95853e-17
Pressure gradient source: uncorrected Ubar = 1, pressure gradient = 0.0494848
smoothSolver:  Solving for omega, Initial residual = 8.33607e-06, Final residual = 8.33607e-06, No Iterations 0
smoothSolver:  Solving for k, Initial residual = 0.0101933, Final residual = 0.000931029, No Iterations 5
ExecutionTime = 0.136691 s  ClockTime = 0 s

Time = 62s

smoothSolver:  Solving for Ux, Initial residual = 0.000182412, Final residual = 1.71838e-05, No Iterations 5
smoothSolver:  Solving for Uy, Initial residual = 0.0241249, Final residual = 0.00174303, No Iterations 5
Pressure gradient source: uncorrected Ubar = 1.00001, pressure gradient = 0.0489902
GAMG:  Solving for p, Initial residual = 0.018531, Final residual = 0.00183364, No Iterations 3
time step continuity errors : sum local = 1.69883e-08, global = 5.24279e-18, cumulative = 3.48281e-17
Pressure gradient source: uncorrected Ubar = 1, pressure gradient = 0.0494593
smoothSolver:  Solving for omega, Initial residual = 8.33605e-06, Final residual = 8.33605e-06, No Iterations 0
smoothSolver:  Solving for k, Initial residual = 0.0101818, Final residual = 0.000883106, No Iterations 5
ExecutionTime = 0.138876 s  ClockTime = 0 s

Time = 63s

smoothSolver:  Solving for Ux, Initial residual = 0.000177793, Final residual = 1.68298e-05, No Iterations 5
smoothSolver:  Solving for Uy, Initial residual = 0.0231869, Final residual = 0.0016321, No Iterations 5
Pressure gradient source: uncorrected Ubar = 1.00001, pressure gradient = 0.0489884
GAMG:  Solving for p, Initial residual = 0.0181516, Final residual = 0.00165067, No Iterations 3
time step continuity errors : sum local = 1.4742e-08, global = 4.946e-18, cumulative = 3.97741e-17
Pressure gradient source: uncorrected Ubar = 1, pressure gradient = 0.0494354
smoothSolver:  Solving for omega, Initial residual = 8.33604e-06, Final residual = 8.33604e-06, No Iterations 0
smoothSolver:  Solving for k, Initial residual = 0.0101699, Final residual = 0.000849661, No Iterations 5
ExecutionTime = 0.140953 s  ClockTime = 0 s

Time = 64s

smoothSolver:  Solving for Ux, Initial residual = 0.000173274, Final residual = 1.64769e-05, No Iterations 5
smoothSolver:  Solving for Uy, Initial residual = 0.0218944, Final residual = 0.0015036, No Iterations 5
Pressure gradient source: uncorrected Ubar = 1.00001, pressure gradient = 0.0489867
GAMG:  Solving for p, Initial residual = 0.0177283, Final residual = 0.00157082, No Iterations 3
time step continuity errors : sum local = 1.35365e-08, global = -2.17465e-18, cumulative = 3.75995e-17
Pressure gradient source: uncorrected Ubar = 1, pressure gradient = 0.0494129
smoothSolver:  Solving for omega, Initial residual = 8.33602e-06, Final residual = 8.33602e-06, No Iterations 0
smoothSolver:  Solving for k, Initial residual = 0.0101571, Final residual = 0.000850961, No Iterations 5
ExecutionTime = 0.14302 s  ClockTime = 0 s

Time = 65s

smoothSolver:  Solving for Ux, Initial residual = 0.000168855, Final residual = 1.61335e-05, No Iterations 5
smoothSolver:  Solving for Uy, Initial residual = 0.0207451, Final residual = 0.00138745, No Iterations 5
Pressure gradient source: uncorrected Ubar = 1.00001, pressure gradient = 0.0489851
GAMG:  Solving for p, Initial residual = 0.0173884, Final residual = 0.00164001, No Iterations 3
time step continuity errors : sum local = 1.3666e-08, global = 6.16806e-18, cumulative = 4.37675e-17
Pressure gradient source: uncorrected Ubar = 1, pressure gradient = 0.0493918
smoothSolver:  Solving for omega, Initial residual = 8.33601e-06, Final residual = 8.33601e-06, No Iterations 0
smoothSolver:  Solving for k, Initial residual = 0.0101521, Final residual = 0.000892676, No Iterations 5
ExecutionTime = 0.14508 s  ClockTime = 0 s

Time = 66s

smoothSolver:  Solving for Ux, Initial residual = 0.000164534, Final residual = 1.57921e-05, No Iterations 5
smoothSolver:  Solving for Uy, Initial residual = 0.0197478, Final residual = 0.0012862, No Iterations 5
Pressure gradient source: uncorrected Ubar = 1.00001, pressure gradient = 0.0489835
GAMG:  Solving for p, Initial residual = 0.017119, Final residual = 0.000801868, No Iterations 4
time step continuity errors : sum local = 6.59595e-09, global = -1.45349e-18, cumulative = 4.2314e-17
Pressure gradient source: uncorrected Ubar = 1, pressure gradient = 0.0493719
smoothSolver:  Solving for omega, Initial residual = 8.33599e-06, Final residual = 8.33599e-06, No Iterations 0
smoothSolver:  Solving for k, Initial residual = 0.0101382, Final residual = 0.000846867, No Iterations 5
ExecutionTime = 0.147173 s  ClockTime = 0 s

Time = 67s

smoothSolver:  Solving for Ux, Initial residual = 0.000160311, Final residual = 1.54554e-05, No Iterations 5
smoothSolver:  Solving for Uy, Initial residual = 0.0187256, Final residual = 0.00117695, No Iterations 5
Pressure gradient source: uncorrected Ubar = 1.00001, pressure gradient = 0.0489821
GAMG:  Solving for p, Initial residual = 0.016962, Final residual = 0.000943684, No Iterations 4
time step continuity errors : sum local = 7.40023e-09, global = -6.59439e-18, cumulative = 3.57197e-17
Pressure gradient source: uncorrected Ubar = 1, pressure gradient = 0.0493531
smoothSolver:  Solving for omega, Initial residual = 8.33597e-06, Final residual = 8.33597e-06, No Iterations 0
smoothSolver:  Solving for k, Initial residual = 0.0101316, Final residual = 0.000898603, No Iterations 5
ExecutionTime = 0.149261 s  ClockTime = 0 s

Time = 68s

smoothSolver:  Solving for Ux, Initial residual = 0.000156184, Final residual = 1.51208e-05, No Iterations 5
smoothSolver:  Solving for Uy, Initial residual = 0.0179225, Final residual = 0.00109292, No Iterations 5
Pressure gradient source: uncorrected Ubar = 1.00001, pressure gradient = 0.0489806
GAMG:  Solving for p, Initial residual = 0.016777, Final residual = 0.00112299, No Iterations 4
time step continuity errors : sum local = 8.51812e-09, global = -6.81095e-19, cumulative = 3.50386e-17
Pressure gradient source: uncorrected Ubar = 1, pressure gradient = 0.0493355
smoothSolver:  Solving for omega, Initial residual = 8.33595e-06, Final residual = 8.33595e-06, No Iterations 0
smoothSolver:  Solving for k, Initial residual = 0.010109, Final residual = 0.000792011, No Iterations 5
ExecutionTime = 0.151402 s  ClockTime = 0 s

Time = 69s

smoothSolver:  Solving for Ux, Initial residual = 0.000152151, Final residual = 1.47887e-05, No Iterations 5
smoothSolver:  Solving for Uy, Initial residual = 0.0172354, Final residual = 0.00171656, No Iterations 4
Pressure gradient source: uncorrected Ubar = 1.00001, pressure gradient = 0.0489793
GAMG:  Solving for p, Initial residual = 0.0163016, Final residual = 0.00122583, No Iterations 4
time step continuity errors : sum local = 9.01896e-09, global = -4.21708e-18, cumulative = 3.08215e-17
Pressure gradient source: uncorrected Ubar = 1, pressure gradient = 0.0493188
smoothSolver:  Solving for omega, Initial residual = 8.33593e-06, Final residual = 8.33593e-06, No Iterations 0
smoothSolver:  Solving for k, Initial residual = 0.0101132, Final residual = 0.000910549, No Iterations 5
ExecutionTime = 0.15357 s  ClockTime = 0 s

Time = 70s

smoothSolver:  Solving for Ux, Initial residual = 0.000148243, Final residual = 1.44597e-05, No Iterations 5
smoothSolver:  Solving for Uy, Initial residual = 0.0169537, Final residual = 0.00165795, No Iterations 4
Pressure gradient source: uncorrected Ubar = 1.00001, pressure gradient = 0.048978
GAMG:  Solving for p, Initial residual = 0.0163609, Final residual = 0.00142317, No Iterations 4
time step continuity errors : sum local = 1.02292e-08, global = 1.48459e-18, cumulative = 3.23061e-17
Pressure gradient source: uncorrected Ubar = 1, pressure gradient = 0.049303
smoothSolver:  Solving for omega, Initial residual = 8.33591e-06, Final residual = 8.33591e-06, No Iterations 0
smoothSolver:  Solving for k, Initial residual = 0.0101095, Final residual = 0.000912931, No Iterations 5
ExecutionTime = 0.155987 s  ClockTime = 0 s

Time = 71s

smoothSolver:  Solving for Ux, Initial residual = 0.000144459, Final residual = 1.41341e-05, No Iterations 5
smoothSolver:  Solving for Uy, Initial residual = 0.0165099, Final residual = 0.00158871, No Iterations 4
Pressure gradient source: uncorrected Ubar = 1, pressure gradient = 0.0489768
GAMG:  Solving for p, Initial residual = 0.0163845, Final residual = 0.00102362, No Iterations 5
time step continuity errors : sum local = 7.05051e-09, global = 2.18237e-18, cumulative = 3.44884e-17
Pressure gradient source: uncorrected Ubar = 1, pressure gradient = 0.0492881
smoothSolver:  Solving for omega, Initial residual = 8.33589e-06, Final residual = 8.33589e-06, No Iterations 0
smoothSolver:  Solving for k, Initial residual = 0.010106, Final residual = 0.000900416, No Iterations 5
ExecutionTime = 0.158513 s  ClockTime = 0 s

Time = 72s

smoothSolver:  Solving for Ux, Initial residual = 0.000140759, Final residual = 1.38121e-05, No Iterations 5
smoothSolver:  Solving for Uy, Initial residual = 0.0158549, Final residual = 0.00145621, No Iterations 4
Pressure gradient source: uncorrected Ubar = 1, pressure gradient = 0.0489756
GAMG:  Solving for p, Initial residual = 0.0162176, Final residual = 0.00124698, No Iterations 4
time step continuity errors : sum local = 8.6619e-09, global = -8.15602e-18, cumulative = 2.63324e-17
Pressure gradient source: uncorrected Ubar = 1, pressure gradient = 0.049274
smoothSolver:  Solving for omega, Initial residual = 8.33586e-06, Final residual = 8.33586e-06, No Iterations 0
smoothSolver:  Solving for k, Initial residual = 0.0100937, Final residual = 0.000850872, No Iterations 5
ExecutionTime = 0.160807 s  ClockTime = 0 s

Time = 73s

smoothSolver:  Solving for Ux, Initial residual = 0.000137141, Final residual = 1.34942e-05, No Iterations 5
smoothSolver:  Solving for Uy, Initial residual = 0.0158532, Final residual = 0.00148155, No Iterations 4
Pressure gradient source: uncorrected Ubar = 1, pressure gradient = 0.0489745
GAMG:  Solving for p, Initial residual = 0.016137, Final residual = 0.00119042, No Iterations 5
time step continuity errors : sum local = 8.12545e-09, global = -1.55236e-17, cumulative = 1.08088e-17
Pressure gradient source: uncorrected Ubar = 1, pressure gradient = 0.0492606
smoothSolver:  Solving for omega, Initial residual = 8.33584e-06, Final residual = 8.33584e-06, No Iterations 0
smoothSolver:  Solving for k, Initial residual = 0.0100837, Final residual = 0.000840268, No Iterations 5
ExecutionTime = 0.162932 s  ClockTime = 0 s

Time = 74s

smoothSolver:  Solving for Ux, Initial residual = 0.000133606, Final residual = 1.31806e-05, No Iterations 5
smoothSolver:  Solving for Uy, Initial residual = 0.0151702, Final residual = 0.00135941, No Iterations 4
Pressure gradient source: uncorrected Ubar = 1, pressure gradient = 0.0489734
GAMG:  Solving for p, Initial residual = 0.0160018, Final residual = 0.0014663, No Iterations 4
time step continuity errors : sum local = 9.60012e-09, global = 1.35961e-18, cumulative = 1.21684e-17
Pressure gradient source: uncorrected Ubar = 1, pressure gradient = 0.049248
smoothSolver:  Solving for omega, Initial residual = 8.33582e-06, Final residual = 8.33582e-06, No Iterations 0
smoothSolver:  Solving for k, Initial residual = 0.0100809, Final residual = 0.000880754, No Iterations 5
ExecutionTime = 0.164922 s  ClockTime = 0 s

Time = 75s

smoothSolver:  Solving for Ux, Initial residual = 0.000130152, Final residual = 1.28714e-05, No Iterations 5
smoothSolver:  Solving for Uy, Initial residual = 0.0151624, Final residual = 0.00141303, No Iterations 4
Pressure gradient source: uncorrected Ubar = 1, pressure gradient = 0.0489724
GAMG:  Solving for p, Initial residual = 0.0159727, Final residual = 0.00130803, No Iterations 5
time step continuity errors : sum local = 8.04516e-09, global = -2.93898e-18, cumulative = 9.22946e-18
Pressure gradient source: uncorrected Ubar = 1, pressure gradient = 0.049236
smoothSolver:  Solving for omega, Initial residual = 8.33579e-06, Final residual = 8.33579e-06, No Iterations 0
smoothSolver:  Solving for k, Initial residual = 0.0100769, Final residual = 0.000891631, No Iterations 5
ExecutionTime = 0.167249 s  ClockTime = 0 s

Time = 76s

smoothSolver:  Solving for Ux, Initial residual = 0.000126777, Final residual = 1.25669e-05, No Iterations 5
smoothSolver:  Solving for Uy, Initial residual = 0.0148693, Final residual = 0.00131441, No Iterations 4
Pressure gradient source: uncorrected Ubar = 1, pressure gradient = 0.0489714
GAMG:  Solving for p, Initial residual = 0.0156328, Final residual = 0.00111248, No Iterations 5
time step continuity errors : sum local = 6.96586e-09, global = -1.06738e-17, cumulative = -1.44433e-18
Pressure gradient source: uncorrected Ubar = 1, pressure gradient = 0.0492246
smoothSolver:  Solving for omega, Initial residual = 8.33577e-06, Final residual = 8.33577e-06, No Iterations 0
smoothSolver:  Solving for k, Initial residual = 0.0100732, Final residual = 0.000896588, No Iterations 5
ExecutionTime = 0.169393 s  ClockTime = 0 s

Time = 77s

smoothSolver:  Solving for Ux, Initial residual = 0.000123482, Final residual = 1.22672e-05, No Iterations 5
smoothSolver:  Solving for Uy, Initial residual = 0.0145223, Final residual = 0.0013229, No Iterations 4
Pressure gradient source: uncorrected Ubar = 1, pressure gradient = 0.0489705
GAMG:  Solving for p, Initial residual = 0.015661, Final residual = 0.00113195, No Iterations 5
time step continuity errors : sum local = 6.86028e-09, global = -6.77476e-18, cumulative = -8.21908e-18
Pressure gradient source: uncorrected Ubar = 1, pressure gradient = 0.0492138
smoothSolver:  Solving for omega, Initial residual = 8.33575e-06, Final residual = 8.33575e-06, No Iterations 0
smoothSolver:  Solving for k, Initial residual = 0.0100563, Final residual = 0.0007974, No Iterations 5
ExecutionTime = 0.171541 s  ClockTime = 0 s

Time = 78s

smoothSolver:  Solving for Ux, Initial residual = 0.000120263, Final residual = 1.19726e-05, No Iterations 5
smoothSolver:  Solving for Uy, Initial residual = 0.01446, Final residual = 0.00133666, No Iterations 4
Pressure gradient source: uncorrected Ubar = 1, pressure gradient = 0.0489696
GAMG:  Solving for p, Initial residual = 0.0155649, Final residual = 0.00117993, No Iterations 5
time step continuity errors : sum local = 6.93448e-09, global = -1.27611e-18, cumulative = -9.49519e-18
Pressure gradient source: uncorrected Ubar = 1, pressure gradient = 0.0492035
smoothSolver:  Solving for omega, Initial residual = 8.33573e-06, Final residual = 8.33573e-06, No Iterations 0
smoothSolver:  Solving for k, Initial residual = 0.0100542, Final residual = 0.000865389, No Iterations 5
ExecutionTime = 0.173706 s  ClockTime = 0 s

Time = 79s

smoothSolver:  Solving for Ux, Initial residual = 0.000117121, Final residual = 1.1686e-05, No Iterations 5
smoothSolver:  Solving for Uy, Initial residual = 0.0144464, Final residual = 0.00134522, No Iterations 4
Pressure gradient source: uncorrected Ubar = 1, pressure gradient = 0.0489687
GAMG:  Solving for p, Initial residual = 0.0154371, Final residual = 0.00125236, No Iterations 5
time step continuity errors : sum local = 7.11546e-09, global = 9.37398e-18, cumulative = -1.21206e-19
Pressure gradient source: uncorrected Ubar = 1, pressure gradient = 0.0491937
smoothSolver:  Solving for omega, Initial residual = 8.3357e-06, Final residual = 8.3357e-06, No Iterations 0
smoothSolver:  Solving for k, Initial residual = 0.0100515, Final residual = 0.000879855, No Iterations 5
ExecutionTime = 0.175963 s  ClockTime = 0 s

Time = 80s

smoothSolver:  Solving for Ux, Initial residual = 0.000114054, Final residual = 1.14043e-05, No Iterations 5
smoothSolver:  Solving for Uy, Initial residual = 0.0144285, Final residual = 0.00134752, No Iterations 4
Pressure gradient source: uncorrected Ubar = 1, pressure gradient = 0.0489679
GAMG:  Solving for p, Initial residual = 0.0153098, Final residual = 0.00130205, No Iterations 5
time step continuity errors : sum local = 7.18949e-09, global = -3.18436e-18, cumulative = -3.30556e-18
Pressure gradient source: uncorrected Ubar = 1, pressure gradient = 0.0491844
smoothSolver:  Solving for omega, Initial residual = 8.33568e-06, Final residual = 8.33568e-06, No Iterations 0
smoothSolver:  Solving for k, Initial residual = 0.0100534, Final residual = 0.000915734, No Iterations 5
ExecutionTime = 0.178103 s  ClockTime = 0 s

Time = 81s

smoothSolver:  Solving for Ux, Initial residual = 0.000111061, Final residual = 7.30748e-06, No Iterations 6
smoothSolver:  Solving for Uy, Initial residual = 0.0143956, Final residual = 0.0013511, No Iterations 4
Pressure gradient source: uncorrected Ubar = 1, pressure gradient = 0.0490437
GAMG:  Solving for p, Initial residual = 0.0826238, Final residual = 0.00459814, No Iterations 4
time step continuity errors : sum local = 2.22203e-08, global = 9.26589e-18, cumulative = 5.96033e-18
Pressure gradient source: uncorrected Ubar = 1, pressure gradient = 0.0491813
smoothSolver:  Solving for omega, Initial residual = 8.33565e-06, Final residual = 8.33565e-06, No Iterations 0
smoothSolver:  Solving for k, Initial residual = 0.0100407, Final residual = 0.000829143, No Iterations 5
ExecutionTime = 0.18016 s  ClockTime = 0 s

Time = 82s

smoothSolver:  Solving for Ux, Initial residual = 0.000107934, Final residual = 7.10664e-06, No Iterations 6
smoothSolver:  Solving for Uy, Initial residual = 0.0409874, Final residual = 0.00364483, No Iterations 4
Pressure gradient source: uncorrected Ubar = 1, pressure gradient = 0.0490167
GAMG:  Solving for p, Initial residual = 0.0754974, Final residual = 0.00321965, No Iterations 4
time step continuity errors : sum local = 1.4323e-08, global = -8.96197e-18, cumulative = -3.00164e-18
Pressure gradient source: uncorrected Ubar = 1, pressure gradient = 0.0491745
smoothSolver:  Solving for omega, Initial residual = 8.33562e-06, Final residual = 8.33562e-06, No Iterations 0
smoothSolver:  Solving for k, Initial residual = 0.010028, Final residual = 0.000829737, No Iterations 5
ExecutionTime = 0.1822 s  ClockTime = 0 s

Time = 83s

smoothSolver:  Solving for Ux, Initial residual = 0.000104938, Final residual = 6.91747e-06, No Iterations 6
smoothSolver:  Solving for Uy, Initial residual = 0.0577783, Final residual = 0.0051698, No Iterations 4
Pressure gradient source: uncorrected Ubar = 1, pressure gradient = 0.0490135
GAMG:  Solving for p, Initial residual = 0.0618082, Final residual = 0.00549043, No Iterations 3
time step continuity errors : sum local = 2.24872e-08, global = 6.98102e-18, cumulative = 3.97938e-18
Pressure gradient source: uncorrected Ubar = 1, pressure gradient = 0.0491676
smoothSolver:  Solving for omega, Initial residual = 8.3356e-06, Final residual = 8.3356e-06, No Iterations 0
smoothSolver:  Solving for k, Initial residual = 0.0100365, Final residual = 0.00093543, No Iterations 5
ExecutionTime = 0.184208 s  ClockTime = 0 s

Time = 84s

smoothSolver:  Solving for Ux, Initial residual = 0.000102037, Final residual = 6.73398e-06, No Iterations 6
smoothSolver:  Solving for Uy, Initial residual = 0.0617092, Final residual = 0.0056748, No Iterations 4
Pressure gradient source: uncorrected Ubar = 1, pressure gradient = 0.0490097
GAMG:  Solving for p, Initial residual = 0.0462172, Final residual = 0.00183748, No Iterations 4
time step continuity errors : sum local = 7.18334e-09, global = -2.01876e-18, cumulative = 1.96061e-18
Pressure gradient source: uncorrected Ubar = 1, pressure gradient = 0.0491606
smoothSolver:  Solving for omega, Initial residual = 8.33558e-06, Final residual = 8.33558e-06, No Iterations 0
smoothSolver:  Solving for k, Initial residual = 0.0100318, Final residual = 0.000871323, No Iterations 5
ExecutionTime = 0.18626 s  ClockTime = 0 s

Time = 85s

smoothSolver:  Solving for Ux, Initial residual = 9.92379e-05, Final residual = 9.98199e-06, No Iterations 5
smoothSolver:  Solving for Uy, Initial residual = 0.057182, Final residual = 0.00532828, No Iterations 4
Pressure gradient source: uncorrected Ubar = 1, pressure gradient = 0.0489413
GAMG:  Solving for p, Initial residual = 0.0705911, Final residual = 0.00382889, No Iterations 4
time step continuity errors : sum local = 1.51859e-08, global = 1.02477e-18, cumulative = 2.98539e-18
Pressure gradient source: uncorrected Ubar = 1, pressure gradient = 0.0491486
smoothSolver:  Solving for omega, Initial residual = 8.33556e-06, Final residual = 8.33556e-06, No Iterations 0
smoothSolver:  Solving for k, Initial residual = 0.0100172, Final residual = 0.000827319, No Iterations 5
ExecutionTime = 0.188392 s  ClockTime = 0 s

Time = 86s

smoothSolver:  Solving for Ux, Initial residual = 9.66812e-05, Final residual = 9.74891e-06, No Iterations 5
smoothSolver:  Solving for Uy, Initial residual = 0.0385298, Final residual = 0.00231275, No Iterations 5
Pressure gradient source: uncorrected Ubar = 1, pressure gradient = 0.0489602
GAMG:  Solving for p, Initial residual = 0.0495428, Final residual = 0.0037101, No Iterations 7
time step continuity errors : sum local = 1.56489e-08, global = 4.76977e-18, cumulative = 7.75515e-18
Pressure gradient source: uncorrected Ubar = 1, pressure gradient = 0.0491405
smoothSolver:  Solving for omega, Initial residual = 8.33554e-06, Final residual = 8.33554e-06, No Iterations 0
smoothSolver:  Solving for k, Initial residual = 0.0100009, Final residual = 0.000786881, No Iterations 5
ExecutionTime = 0.190579 s  ClockTime = 0 s

Time = 87s

smoothSolver:  Solving for Ux, Initial residual = 9.41596e-05, Final residual = 9.51198e-06, No Iterations 5
smoothSolver:  Solving for Uy, Initial residual = 0.0368469, Final residual = 0.0024263, No Iterations 5
Pressure gradient source: uncorrected Ubar = 1, pressure gradient = 0.0489602
GAMG:  Solving for p, Initial residual = 0.0339726, Final residual = 0.00308671, No Iterations 7
time step continuity errors : sum local = 1.34331e-08, global = -5.10415e-18, cumulative = 2.651e-18
Pressure gradient source: uncorrected Ubar = 1, pressure gradient = 0.0491329
smoothSolver:  Solving for omega, Initial residual = 8.33552e-06, Final residual = 8.33552e-06, No Iterations 0
smoothSolver:  Solving for k, Initial residual = 0.0100097, Final residual = 0.000899158, No Iterations 5
ExecutionTime = 0.192688 s  ClockTime = 0 s

Time = 88s

smoothSolver:  Solving for Ux, Initial residual = 9.16982e-05, Final residual = 9.27834e-06, No Iterations 5
smoothSolver:  Solving for Uy, Initial residual = 0.0329271, Final residual = 0.00201872, No Iterations 5
Pressure gradient source: uncorrected Ubar = 1, pressure gradient = 0.0489607
GAMG:  Solving for p, Initial residual = 0.0226577, Final residual = 0.00117614, No Iterations 6
time step continuity errors : sum local = 4.77807e-09, global = -1.24151e-18, cumulative = 1.40949e-18
Pressure gradient source: uncorrected Ubar = 1, pressure gradient = 0.0491258
smoothSolver:  Solving for omega, Initial residual = 8.3355e-06, Final residual = 8.3355e-06, No Iterations 0
smoothSolver:  Solving for k, Initial residual = 0.0100141, Final residual = 0.000936871, No Iterations 5
ExecutionTime = 0.194716 s  ClockTime = 0 s

Time = 89s

smoothSolver:  Solving for Ux, Initial residual = 8.92938e-05, Final residual = 9.04821e-06, No Iterations 5
smoothSolver:  Solving for Uy, Initial residual = 0.0260735, Final residual = 0.00157503, No Iterations 5
Pressure gradient source: uncorrected Ubar = 1, pressure gradient = 0.0489607
GAMG:  Solving for p, Initial residual = 0.0157421, Final residual = 0.000902607, No Iterations 6
time step continuity errors : sum local = 3.58674e-09, global = 1.71005e-18, cumulative = 3.11954e-18
Pressure gradient source: uncorrected Ubar = 1, pressure gradient = 0.0491192
smoothSolver:  Solving for omega, Initial residual = 8.33547e-06, Final residual = 8.33547e-06, No Iterations 0
smoothSolver:  Solving for k, Initial residual = 0.00999663, Final residual = 0.000814254, No Iterations 5
ExecutionTime = 0.19674 s  ClockTime = 0 s

Time = 90s

[...]
Pressure gradient source: uncorrected Ubar = 1, pressure gradient = 0.0489187
GAMG:  Solving for p, Initial residual = 0.0154218, Final residual = 0.000809342, No Iterations 4
time step continuity errors : sum local = 3.00116e-09, global = 5.03638e-18, cumulative = -1.05905e-17
Pressure gradient source: uncorrected Ubar = 1, pressure gradient = 0.0489879
smoothSolver:  Solving for omega, Initial residual = 3.29479e-05, Final residual = 2.31843e-06, No Iterations 1
smoothSolver:  Solving for k, Initial residual = 0.00716908, Final residual = 0.000679102, No Iterations 5
bounding k, min: 8.46222e-17 max: 5.0289e-11 average: 2.71326e-11
ExecutionTime = 0.266707 s  ClockTime = 1 s

Time = 124s

smoothSolver:  Solving for Ux, Initial residual = 3.62739e-05, Final residual = 8.89924e-06, No Iterations 3
smoothSolver:  Solving for Uy, Initial residual = 0.0128096, Final residual = 0.00113433, No Iterations 4
Pressure gradient source: uncorrected Ubar = 1, pressure gradient = 0.0489197
GAMG:  Solving for p, Initial residual = 0.0116995, Final residual = 0.00100021, No Iterations 5
time step continuity errors : sum local = 3.50197e-09, global = 9.95769e-18, cumulative = -6.32838e-19
Pressure gradient source: uncorrected Ubar = 1, pressure gradient = 0.0489861
smoothSolver:  Solving for omega, Initial residual = 3.0281e-05, Final residual = 2.67289e-06, No Iterations 1
smoothSolver:  Solving for k, Initial residual = 0.00694626, Final residual = 0.000648461, No Iterations 5
bounding k, min: 7.69562e-17 max: 4.53528e-11 average: 2.43362e-11
ExecutionTime = 0.268893 s  ClockTime = 1 s

Time = 125s

smoothSolver:  Solving for Ux, Initial residual = 3.54377e-05, Final residual = 8.70303e-06, No Iterations 3
smoothSolver:  Solving for Uy, Initial residual = 0.00820889, Final residual = 0.000677857, No Iterations 4
Pressure gradient source: uncorrected Ubar = 1, pressure gradient = 0.0489205
GAMG:  Solving for p, Initial residual = 0.0121329, Final residual = 0.000945812, No Iterations 7
time step continuity errors : sum local = 3.23593e-09, global = -8.51229e-18, cumulative = -9.14513e-18
Pressure gradient source: uncorrected Ubar = 1, pressure gradient = 0.0489845
smoothSolver:  Solving for omega, Initial residual = 2.19608e-05, Final residual = 2.14085e-06, No Iterations 1
smoothSolver:  Solving for k, Initial residual = 0.0067319, Final residual = 0.000622072, No Iterations 5
bounding k, min: 7.03108e-17 max: 4.11965e-11 average: 2.19061e-11
ExecutionTime = 0.271334 s  ClockTime = 1 s

Time = 126s

smoothSolver:  Solving for Ux, Initial residual = 3.46174e-05, Final residual = 8.50964e-06, No Iterations 3
smoothSolver:  Solving for Uy, Initial residual = 0.0051994, Final residual = 0.000506497, No Iterations 4
Pressure gradient source: uncorrected Ubar = 1, pressure gradient = 0.0489213
GAMG:  Solving for p, Initial residual = 0.0129297, Final residual = 0.00103929, No Iterations 7
time step continuity errors : sum local = 3.64847e-09, global = 1.95174e-18, cumulative = -7.19338e-18
Pressure gradient source: uncorrected Ubar = 1, pressure gradient = 0.048983
smoothSolver:  Solving for omega, Initial residual = 1.43084e-05, Final residual = 1.67606e-06, No Iterations 1
smoothSolver:  Solving for k, Initial residual = 0.00652025, Final residual = 0.000560686, No Iterations 5
bounding k, min: 6.45041e-17 max: 3.74727e-11 average: 1.98291e-11
ExecutionTime = 0.273782 s  ClockTime = 1 s

Time = 127s

smoothSolver:  Solving for Ux, Initial residual = 3.38132e-05, Final residual = 8.31936e-06, No Iterations 3
smoothSolver:  Solving for Uy, Initial residual = 0.00657712, Final residual = 0.000555739, No Iterations 4
Pressure gradient source: uncorrected Ubar = 1, pressure gradient = 0.048922
GAMG:  Solving for p, Initial residual = 0.0137952, Final residual = 0.00111536, No Iterations 5
time step continuity errors : sum local = 3.92691e-09, global = -7.69403e-18, cumulative = -1.48874e-17
Pressure gradient source: uncorrected Ubar = 1, pressure gradient = 0.0489817
smoothSolver:  Solving for omega, Initial residual = 1.15948e-05, Final residual = 1.70376e-06, No Iterations 1
smoothSolver:  Solving for k, Initial residual = 0.0063432, Final residual = 0.000619871, No Iterations 5
bounding k, min: 5.94697e-17 max: 3.37958e-11 average: 1.79235e-11
ExecutionTime = 0.275961 s  ClockTime = 1 s

Time = 128s

smoothSolver:  Solving for Ux, Initial residual = 3.30252e-05, Final residual = 8.13212e-06, No Iterations 3
smoothSolver:  Solving for Uy, Initial residual = 0.00831611, Final residual = 0.00068101, No Iterations 4
Pressure gradient source: uncorrected Ubar = 1, pressure gradient = 0.0489227
GAMG:  Solving for p, Initial residual = 0.0146532, Final residual = 0.000797719, No Iterations 5
time step continuity errors : sum local = 2.77746e-09, global = 4.36349e-18, cumulative = -1.05239e-17
Pressure gradient source: uncorrected Ubar = 1, pressure gradient = 0.0489804
smoothSolver:  Solving for omega, Initial residual = 1.05708e-05, Final residual = 1.90632e-06, No Iterations 1
smoothSolver:  Solving for k, Initial residual = 0.00615319, Final residual = 0.00055232, No Iterations 5
bounding k, min: 5.51333e-17 max: 3.09535e-11 average: 1.62929e-11
ExecutionTime = 0.278079 s  ClockTime = 1 s

Time = 129s

smoothSolver:  Solving for Ux, Initial residual = 3.22534e-05, Final residual = 7.94807e-06, No Iterations 3
smoothSolver:  Solving for Uy, Initial residual = 0.0097185, Final residual = 0.000836248, No Iterations 4
Pressure gradient source: uncorrected Ubar = 1, pressure gradient = 0.0489233
GAMG:  Solving for p, Initial residual = 0.01514, Final residual = 0.000893028, No Iterations 5
time step continuity errors : sum local = 2.92143e-09, global = 8.35424e-18, cumulative = -2.16967e-18
Pressure gradient source: uncorrected Ubar = 1, pressure gradient = 0.0489792
smoothSolver:  Solving for omega, Initial residual = 8.6023e-06, Final residual = 8.6023e-06, No Iterations 0
smoothSolver:  Solving for k, Initial residual = 0.00608675, Final residual = 0.000516818, No Iterations 5
bounding k, min: 5.12611e-17 max: 2.83301e-11 average: 1.48394e-11
ExecutionTime = 0.280086 s  ClockTime = 1 s

Time = 130s

smoothSolver:  Solving for Ux, Initial residual = 3.14979e-05, Final residual = 7.76733e-06, No Iterations 3
smoothSolver:  Solving for Uy, Initial residual = 0.01099, Final residual = 0.000970776, No Iterations 4
Pressure gradient source: uncorrected Ubar = 1, pressure gradient = 0.0489239
GAMG:  Solving for p, Initial residual = 0.0151977, Final residual = 0.000970921, No Iterations 4
time step continuity errors : sum local = 2.96554e-09, global = 5.73354e-18, cumulative = 3.56386e-18
Pressure gradient source: uncorrected Ubar = 1, pressure gradient = 0.048978
smoothSolver:  Solving for omega, Initial residual = 1.66793e-05, Final residual = 3.02338e-06, No Iterations 1
smoothSolver:  Solving for k, Initial residual = 0.0059573, Final residual = 0.000385188, No Iterations 6
bounding k, min: 4.79729e-17 max: 2.56133e-11 average: 1.3414e-11
ExecutionTime = 0.282349 s  ClockTime = 1 s

Time = 131s

smoothSolver:  Solving for Ux, Initial residual = 3.07586e-05, Final residual = 7.58996e-06, No Iterations 3
smoothSolver:  Solving for Uy, Initial residual = 0.0121631, Final residual = 0.00110271, No Iterations 4
Pressure gradient source: uncorrected Ubar = 1, pressure gradient = 0.0489244
GAMG:  Solving for p, Initial residual = 0.0152144, Final residual = 0.000722814, No Iterations 4
time step continuity errors : sum local = 2.1605e-09, global = 4.23576e-18, cumulative = 7.79962e-18
Pressure gradient source: uncorrected Ubar = 1, pressure gradient = 0.048977
smoothSolver:  Solving for omega, Initial residual = 7.18072e-06, Final residual = 7.18072e-06, No Iterations 0
smoothSolver:  Solving for k, Initial residual = 0.00591189, Final residual = 0.000401751, No Iterations 6
bounding k, min: 4.49883e-17 max: 2.32039e-11 average: 1.21212e-11
ExecutionTime = 0.28443 s  ClockTime = 1 s

Time = 132s

smoothSolver:  Solving for Ux, Initial residual = 3.00355e-05, Final residual = 7.41622e-06, No Iterations 3
smoothSolver:  Solving for Uy, Initial residual = 0.012956, Final residual = 0.00118559, No Iterations 4
Pressure gradient source: uncorrected Ubar = 1, pressure gradient = 0.048925
GAMG:  Solving for p, Initial residual = 0.0149099, Final residual = 0.000622138, No Iterations 4
time step continuity errors : sum local = 1.78235e-09, global = 3.17723e-18, cumulative = 1.09769e-17
Pressure gradient source: uncorrected Ubar = 1, pressure gradient = 0.048976
smoothSolver:  Solving for omega, Initial residual = 9.92789e-06, Final residual = 9.92789e-06, No Iterations 0
smoothSolver:  Solving for k, Initial residual = 0.00586218, Final residual = 0.000515203, No Iterations 5
bounding k, min: 4.23906e-17 max: 2.14414e-11 average: 1.10675e-11
ExecutionTime = 0.28662 s  ClockTime = 1 s

Time = 133s

smoothSolver:  Solving for Ux, Initial residual = 2.93287e-05, Final residual = 7.24592e-06, No Iterations 3
smoothSolver:  Solving for Uy, Initial residual = 0.0133778, Final residual = 0.00123067, No Iterations 4
Pressure gradient source: uncorrected Ubar = 1, pressure gradient = 0.0489255
GAMG:  Solving for p, Initial residual = 0.0147227, Final residual = 0.00087587, No Iterations 4
time step continuity errors : sum local = 2.42581e-09, global = 1.73054e-18, cumulative = 1.27074e-17
Pressure gradient source: uncorrected Ubar = 1, pressure gradient = 0.048975
smoothSolver:  Solving for omega, Initial residual = 1.3238e-05, Final residual = 3.36472e-06, No Iterations 1
smoothSolver:  Solving for k, Initial residual = 0.0057212, Final residual = 0.000495817, No Iterations 5
bounding k, min: 4.02677e-17 max: 1.96494e-11 average: 1.01259e-11
ExecutionTime = 0.288828 s  ClockTime = 1 s

Time = 134s

smoothSolver:  Solving for Ux, Initial residual = 2.86393e-05, Final residual = 7.07906e-06, No Iterations 3
smoothSolver:  Solving for Uy, Initial residual = 0.0135921, Final residual = 0.00126631, No Iterations 4
Pressure gradient source: uncorrected Ubar = 1, pressure gradient = 0.048926
GAMG:  Solving for p, Initial residual = 0.0145547, Final residual = 0.00132276, No Iterations 4
time step continuity errors : sum local = 3.49293e-09, global = 1.31991e-17, cumulative = 2.59065e-17
Pressure gradient source: uncorrected Ubar = 1, pressure gradient = 0.0489741
smoothSolver:  Solving for omega, Initial residual = 4.59745e-06, Final residual = 4.59745e-06, No Iterations 0
smoothSolver:  Solving for k, Initial residual = 0.00569532, Final residual = 0.000383766, No Iterations 6
bounding k, min: 3.83166e-17 max: 1.78137e-11 average: 9.17722e-12
ExecutionTime = 0.290953 s  ClockTime = 1 s

Time = 135s

smoothSolver:  Solving for Ux, Initial residual = 2.79658e-05, Final residual = 6.91561e-06, No Iterations 3
smoothSolver:  Solving for Uy, Initial residual = 0.0139267, Final residual = 0.00129844, No Iterations 4
Pressure gradient source: uncorrected Ubar = 1, pressure gradient = 0.0489265
GAMG:  Solving for p, Initial residual = 0.0143201, Final residual = 0.00094062, No Iterations 5
time step continuity errors : sum local = 2.46875e-09, global = -4.78042e-18, cumulative = 2.11261e-17
Pressure gradient source: uncorrected Ubar = 1, pressure gradient = 0.0489732
smoothSolver:  Solving for omega, Initial residual = 6.40435e-06, Final residual = 6.40435e-06, No Iterations 0
smoothSolver:  Solving for k, Initial residual = 0.00566225, Final residual = 0.000532225, No Iterations 5
bounding k, min: 3.6591e-17 max: 1.62319e-11 average: 8.38051e-12
ExecutionTime = 0.293068 s  ClockTime = 1 s

Time = 136s

smoothSolver:  Solving for Ux, Initial residual = 2.73074e-05, Final residual = 6.75557e-06, No Iterations 3
smoothSolver:  Solving for Uy, Initial residual = 0.0142496, Final residual = 0.00135259, No Iterations 4
Pressure gradient source: uncorrected Ubar = 1, pressure gradient = 0.048927
GAMG:  Solving for p, Initial residual = 0.0139076, Final residual = 0.00136999, No Iterations 4
time step continuity errors : sum local = 3.57743e-09, global = 2.08224e-18, cumulative = 2.32084e-17
Pressure gradient source: uncorrected Ubar = 1, pressure gradient = 0.0489724
smoothSolver:  Solving for omega, Initial residual = 7.84179e-06, Final residual = 7.84179e-06, No Iterations 0
smoothSolver:  Solving for k, Initial residual = 0.00563726, Final residual = 0.000538055, No Iterations 5
bounding k, min: 3.50652e-17 max: 1.48719e-11 average: 7.65869e-12
ExecutionTime = 0.29509 s  ClockTime = 1 s

Time = 137s

smoothSolver:  Solving for Ux, Initial residual = 2.66639e-05, Final residual = 6.59891e-06, No Iterations 3
smoothSolver:  Solving for Uy, Initial residual = 0.0144185, Final residual = 0.00137041, No Iterations 4
Pressure gradient source: uncorrected Ubar = 1, pressure gradient = 0.0489274
GAMG:  Solving for p, Initial residual = 0.0137428, Final residual = 0.0011919, No Iterations 5
time step continuity errors : sum local = 2.94154e-09, global = -3.33044e-18, cumulative = 1.98779e-17
Pressure gradient source: uncorrected Ubar = 1, pressure gradient = 0.0489716
smoothSolver:  Solving for omega, Initial residual = 8.99631e-06, Final residual = 8.99631e-06, No Iterations 0
smoothSolver:  Solving for k, Initial residual = 0.00560627, Final residual = 0.000479808, No Iterations 5
bounding k, min: 3.37169e-17 max: 1.37435e-11 average: 7.01139e-12
ExecutionTime = 0.297311 s  ClockTime = 1 s

Time = 138s

smoothSolver:  Solving for Ux, Initial residual = 2.60349e-05, Final residual = 9.89846e-06, No Iterations 2
smoothSolver:  Solving for Uy, Initial residual = 0.0144293, Final residual = 0.00140015, No Iterations 4
Pressure gradient source: uncorrected Ubar = 1, pressure gradient = 0.0489012
GAMG:  Solving for p, Initial residual = 0.0426336, Final residual = 0.00299488, No Iterations 4
time step continuity errors : sum local = 7.6331e-09, global = 1.43509e-17, cumulative = 3.42288e-17
Pressure gradient source: uncorrected Ubar = 1, pressure gradient = 0.0489644
smoothSolver:  Solving for omega, Initial residual = 9.91573e-06, Final residual = 9.91573e-06, No Iterations 0
smoothSolver:  Solving for k, Initial residual = 0.00560009, Final residual = 0.000356687, No Iterations 6
bounding k, min: 3.24984e-17 max: 1.24634e-11 average: 6.37187e-12
ExecutionTime = 0.299424 s  ClockTime = 1 s

Time = 139s

smoothSolver:  Solving for Ux, Initial residual = 2.55834e-05, Final residual = 9.769e-06, No Iterations 2
smoothSolver:  Solving for Uy, Initial residual = 0.0200884, Final residual = 0.00177395, No Iterations 4
Pressure gradient source: uncorrected Ubar = 1, pressure gradient = 0.0489185
GAMG:  Solving for p, Initial residual = 0.0359759, Final residual = 0.00168046, No Iterations 7
time step continuity errors : sum local = 4.72408e-09, global = -3.5566e-18, cumulative = 3.06722e-17
Pressure gradient source: uncorrected Ubar = 1, pressure gradient = 0.0489621
smoothSolver:  Solving for omega, Initial residual = 1.06676e-05, Final residual = 3.81605e-06, No Iterations 1
smoothSolver:  Solving for k, Initial residual = 0.00548295, Final residual = 0.000361118, No Iterations 6
bounding k, min: 3.14917e-17 max: 1.13353e-11 average: 5.79189e-12
ExecutionTime = 0.301629 s  ClockTime = 1 s

Time = 140s

smoothSolver:  Solving for Ux, Initial residual = 2.51049e-05, Final residual = 9.61116e-06, No Iterations 2
smoothSolver:  Solving for Uy, Initial residual = 0.0251428, Final residual = 0.00219623, No Iterations 4
Pressure gradient source: uncorrected Ubar = 1, pressure gradient = 0.0489202
GAMG:  Solving for p, Initial residual = 0.0282986, Final residual = 0.00204205, No Iterations 7
time step continuity errors : sum local = 6.07236e-09, global = -8.78251e-18, cumulative = 2.18897e-17
Pressure gradient source: uncorrected Ubar = 1, pressure gradient = 0.0489603
smoothSolver:  Solving for omega, Initial residual = 4.68993e-06, Final residual = 4.68993e-06, No Iterations 0
smoothSolver:  Solving for k, Initial residual = 0.00544338, Final residual = 0.00053076, No Iterations 5
bounding k, min: 3.06037e-17 max: 1.04715e-11 average: 5.29638e-12
ExecutionTime = 0.303912 s  ClockTime = 1 s

Time = 141s

smoothSolver:  Solving for Ux, Initial residual = 2.46302e-05, Final residual = 9.44896e-06, No Iterations 2
smoothSolver:  Solving for Uy, Initial residual = 0.0235313, Final residual = 0.00208372, No Iterations 4
Pressure gradient source: uncorrected Ubar = 1, pressure gradient = 0.0489215
GAMG:  Solving for p, Initial residual = 0.0212567, Final residual = 0.00129979, No Iterations 6
time step continuity errors : sum local = 3.79398e-09, global = 1.17187e-18, cumulative = 2.30615e-17
Pressure gradient source: uncorrected Ubar = 1, pressure gradient = 0.048959
smoothSolver:  Solving for omega, Initial residual = 5.06242e-06, Final residual = 5.06242e-06, No Iterations 0
smoothSolver:  Solving for k, Initial residual = 0.00542073, Final residual = 0.000512118, No Iterations 5
bounding k, min: 2.97971e-17 max: 9.66264e-12 average: 4.85511e-12
ExecutionTime = 0.306086 s  ClockTime = 1 s

Time = 142s

smoothSolver:  Solving for Ux, Initial residual = 2.41601e-05, Final residual = 9.28398e-06, No Iterations 2
smoothSolver:  Solving for Uy, Initial residual = 0.0183791, Final residual = 0.0015928, No Iterations 4
Pressure gradient source: uncorrected Ubar = 1, pressure gradient = 0.0489224
GAMG:  Solving for p, Initial residual = 0.0156117, Final residual = 0.00113723, No Iterations 5
time step continuity errors : sum local = 3.39195e-09, global = 5.59001e-18, cumulative = 2.86516e-17
Pressure gradient source: uncorrected Ubar = 1, pressure gradient = 0.0489579
smoothSolver:  Solving for omega, Initial residual = 5.37046e-06, Final residual = 5.37046e-06, No Iterations 0
smoothSolver:  Solving for k, Initial residual = 0.00539916, Final residual = 0.000474352, No Iterations 5
bounding k, min: 2.90657e-17 max: 8.88602e-12 average: 4.45452e-12
ExecutionTime = 0.308179 s  ClockTime = 1 s

Time = 143s

smoothSolver:  Solving for Ux, Initial residual = 2.36957e-05, Final residual = 9.11796e-06, No Iterations 2
smoothSolver:  Solving for Uy, Initial residual = 0.0130067, Final residual = 0.00110928, No Iterations 4
Pressure gradient source: uncorrected Ubar = 1, pressure gradient = 0.0489232
GAMG:  Solving for p, Initial residual = 0.0115888, Final residual = 0.000561324, No Iterations 4
time step continuity errors : sum local = 1.69004e-09, global = -1.41977e-17, cumulative = 1.44539e-17
Pressure gradient source: uncorrected Ubar = 1, pressure gradient = 0.048957
smoothSolver:  Solving for omega, Initial residual = 5.62109e-06, Final residual = 5.62109e-06, No Iterations 0
smoothSolver:  Solving for k, Initial residual = 0.0054021, Final residual = 0.000355516, No Iterations 6
bounding k, min: 2.83915e-17 max: 8.05831e-12 average: 4.05216e-12
ExecutionTime = 0.310312 s  ClockTime = 1 s

Time = 144s

smoothSolver:  Solving for Ux, Initial residual = 2.32371e-05, Final residual = 8.9519e-06, No Iterations 2
smoothSolver:  Solving for Uy, Initial residual = 0.00864511, Final residual = 0.000693714, No Iterations 4
Pressure gradient source: uncorrected Ubar = 1, pressure gradient = 0.0489238
GAMG:  Solving for p, Initial residual = 0.0098618, Final residual = 0.000950818, No Iterations 6
time step continuity errors : sum local = 3.02695e-09, global = -4.74405e-18, cumulative = 9.70983e-18
Pressure gradient source: uncorrected Ubar = 1, pressure gradient = 0.0489562
smoothSolver:  Solving for omega, Initial residual = 5.83171e-06, Final residual = 5.83171e-06, No Iterations 0
smoothSolver:  Solving for k, Initial residual = 0.00538745, Final residual = 0.000536454, No Iterations 5
bounding k, min: 2.78399e-17 max: 7.42955e-12 average: 3.70588e-12
ExecutionTime = 0.312432 s  ClockTime = 1 s


SIMPLE solution converged in 144 iterations

End

