/*---------------------------------------------------------------------------*\
  =========                 |
  \\      /  F ield         | OpenFOAM: The Open Source CFD Toolbox
   \\    /   O peration     | Website:  https://openfoam.org
    \\  /    A nd           | Version:  10
     \\/     M anipulation  |
\*---------------------------------------------------------------------------*/
Build  : 10-e450dce21ea5
Exec   : blockMesh
Date   : Jan 16 2023
Time   : 11:42:37
Host   : "w530-R9YK46P"
PID    : 14208
I/O    : uncollated
Case   : /home/jdmezazeron/gitDanielMezaZ/turbulenceVisualized/Data/SimulationFiles/E8_Re508
nProcs : 1
sigFpe : Enabling floating point exception trapping (FOAM_SIGFPE).
fileModificationChecking : Monitoring run-time modified files using timeStampMaster (fileModificationSkew 10)
allowSystemOperations : Allowing user-supplied system call operations

// * * * * * * * * * * * * * * * * * * * * * * * * * * * * * * * * * * * * * //
Create time

Reading "blockMeshDict"

Creating block mesh from
    "system/blockMeshDict"
Creating block edges
No non-planar block faces defined
Creating topology blocks
Creating topology patches

Creating block mesh topology

Check topology

	Basic statistics
		Number of internal faces : 0
		Number of boundary faces : 6
		Number of defined boundary faces : 6
		Number of undefined boundary faces : 0
	Checking patch -> block consistency

Creating block offsets
Creating merge list .

Creating polyMesh from blockMesh
Creating patches
Creating cells
Creating points with scale 1
    Block 0 cell size :
        i : 0.5
        j : 0.00921276 .. 0.036851
        k : 2

Detected cyclic patches; ordering boundary faces

Writing polyMesh
----------------
Mesh Information
----------------
  boundingBox: (-1 0 -1) (1 1 1)
  nPoints: 510
  nCells: 200
  nFaces: 854
  nInternalFaces: 346
----------------
Patches
----------------
  patch 0 (start: 346 size: 50) name: inlet
  patch 1 (start: 396 size: 50) name: outlet
  patch 2 (start: 446 size: 4) name: fixedWalls-bottom
  patch 3 (start: 450 size: 4) name: fixedWalls-top
  patch 4 (start: 454 size: 400) name: frontAndBack

End

/*---------------------------------------------------------------------------*\
  =========                 |
  \\      /  F ield         | OpenFOAM: The Open Source CFD Toolbox
   \\    /   O peration     | Website:  https://openfoam.org
    \\  /    A nd           | Version:  10
     \\/     M anipulation  |
\*---------------------------------------------------------------------------*/
Build  : 10-e450dce21ea5
Exec   : simpleFoam
Date   : Jan 16 2023
Time   : 11:42:37
Host   : "w530-R9YK46P"
PID    : 14209
I/O    : uncollated
Case   : /home/jdmezazeron/gitDanielMezaZ/turbulenceVisualized/Data/SimulationFiles/E8_Re508
nProcs : 1
sigFpe : Enabling floating point exception trapping (FOAM_SIGFPE).
fileModificationChecking : Monitoring run-time modified files using timeStampMaster (fileModificationSkew 10)
allowSystemOperations : Allowing user-supplied system call operations

// * * * * * * * * * * * * * * * * * * * * * * * * * * * * * * * * * * * * * //
Create time

Create mesh for time = 0


SIMPLE: Convergence criteria found
        U: tolerance 0.01
        p: tolerance 0.01
        omega: tolerance 0.0001

Reading field p

Reading field U

Reading/calculating face flux field phi

Selecting viscosity model Newtonian
Selecting turbulence model type RAS
Selecting RAS turbulence model kOmegaSST
Selecting patchDistMethod meshWave
RAS
{
    RASModel        kOmegaSST;
    turbulence      on;
    printCoeffs     on;
    alphaK1         0.85;
    alphaK2         1;
    alphaOmega1     0.5;
    alphaOmega2     0.856;
    gamma1          0.555556;
    gamma2          0.44;
    beta1           0.075;
    beta2           0.0828;
    betaStar        0.09;
    a1              0.31;
    b1              1;
    c1              10;
    F3              false;
}

No MRF models present

--> FOAM Warning : Creating fvModels from "system/fvOptions" rather than constant/fvModels
No fvModels present
--> FOAM Warning : Creating fvConstraints from "system/fvOptions"

Selecting finite volume constraint type meanVelocityForce
    Name: momentumSource
    - selecting all cells
    - selected 200 cell(s) with volume 4
    Initial pressure gradient = 0


Starting time loop

turbulenceFields stressComponents: storing fields:
    R

Time = 1s

smoothSolver:  Solving for Ux, Initial residual = 0, Final residual = 0, No Iterations 0
smoothSolver:  Solving for Uy, Initial residual = 0, Final residual = 0, No Iterations 0
Pressure gradient source: uncorrected Ubar = 0, pressure gradient = 15.7576
GAMG:  Solving for p, Initial residual = 0.999989, Final residual = 0.0341937, No Iterations 3
time step continuity errors : sum local = 6.89784e-17, global = 1.49493e-17, cumulative = 1.49493e-17
Pressure gradient source: uncorrected Ubar = 0.869362, pressure gradient = 2.05854
smoothSolver:  Solving for omega, Initial residual = 0.0191229, Final residual = 0.00113531, No Iterations 2
smoothSolver:  Solving for k, Initial residual = 1, Final residual = 0.04027, No Iterations 1
ExecutionTime = 0.014453 s  ClockTime = 0 s

Time = 2s

smoothSolver:  Solving for Ux, Initial residual = 0.37563, Final residual = 0.0326324, No Iterations 6
smoothSolver:  Solving for Uy, Initial residual = 1, Final residual = 0.0736797, No Iterations 2
Pressure gradient source: uncorrected Ubar = 1.77602, pressure gradient = -14.0856
GAMG:  Solving for p, Initial residual = 1, Final residual = 0.0796538, No Iterations 6
time step continuity errors : sum local = 0.000645075, global = 9.83109e-18, cumulative = 2.47804e-17
Pressure gradient source: uncorrected Ubar = 1.10463, pressure gradient = -0.118262
smoothSolver:  Solving for omega, Initial residual = 0.146358, Final residual = 0.00063658, No Iterations 1
smoothSolver:  Solving for k, Initial residual = 0.1382, Final residual = 0.0136092, No Iterations 2
ExecutionTime = 0.016839 s  ClockTime = 0 s

Time = 3s

smoothSolver:  Solving for Ux, Initial residual = 0.0562196, Final residual = 0.00513191, No Iterations 5
smoothSolver:  Solving for Uy, Initial residual = 0.389685, Final residual = 0.0288658, No Iterations 3
Pressure gradient source: uncorrected Ubar = 0.936874, pressure gradient = 1.24907
GAMG:  Solving for p, Initial residual = 0.208395, Final residual = 0.00924034, No Iterations 4
time step continuity errors : sum local = 0.000163518, global = 1.06963e-17, cumulative = 3.54767e-17
Pressure gradient source: uncorrected Ubar = 0.99103, pressure gradient = 0.0760387
smoothSolver:  Solving for omega, Initial residual = 0.00901742, Final residual = 0.000215634, No Iterations 1
smoothSolver:  Solving for k, Initial residual = 0.0509259, Final residual = 0.00437279, No Iterations 3
ExecutionTime = 0.018884 s  ClockTime = 0 s

Time = 4s

smoothSolver:  Solving for Ux, Initial residual = 0.027276, Final residual = 0.00189793, No Iterations 5
smoothSolver:  Solving for Uy, Initial residual = 0.298042, Final residual = 0.0220714, No Iterations 3
Pressure gradient source: uncorrected Ubar = 1.00956, pressure gradient = -0.127534
GAMG:  Solving for p, Initial residual = 0.134057, Final residual = 0.00985783, No Iterations 6
time step continuity errors : sum local = 0.000161269, global = -3.13402e-18, cumulative = 3.23427e-17
Pressure gradient source: uncorrected Ubar = 1.00129, pressure gradient = 0.0486193
smoothSolver:  Solving for omega, Initial residual = 0.00869355, Final residual = 0.000158768, No Iterations 1
smoothSolver:  Solving for k, Initial residual = 0.0315521, Final residual = 0.00223746, No Iterations 4
ExecutionTime = 0.02099 s  ClockTime = 0 s

Time = 5s

smoothSolver:  Solving for Ux, Initial residual = 0.0189219, Final residual = 0.00131098, No Iterations 5
smoothSolver:  Solving for Uy, Initial residual = 0.269189, Final residual = 0.0164932, No Iterations 4
Pressure gradient source: uncorrected Ubar = 1.00284, pressure gradient = -0.0118622
GAMG:  Solving for p, Initial residual = 0.130594, Final residual = 0.012111, No Iterations 7
time step continuity errors : sum local = 0.000156017, global = -1.12909e-18, cumulative = 3.12136e-17
Pressure gradient source: uncorrected Ubar = 1.00036, pressure gradient = 0.0410596
smoothSolver:  Solving for omega, Initial residual = 0.00347798, Final residual = 9.98877e-05, No Iterations 1
smoothSolver:  Solving for k, Initial residual = 0.0238574, Final residual = 0.00190791, No Iterations 4
ExecutionTime = 0.023285 s  ClockTime = 0 s

Time = 6s

smoothSolver:  Solving for Ux, Initial residual = 0.0146152, Final residual = 0.00103367, No Iterations 5
smoothSolver:  Solving for Uy, Initial residual = 0.349363, Final residual = 0.0227142, No Iterations 3
Pressure gradient source: uncorrected Ubar = 1.00239, pressure gradient = -0.0095673
GAMG:  Solving for p, Initial residual = 0.119739, Final residual = 0.0118528, No Iterations 5
time step continuity errors : sum local = 0.000108665, global = 1.62258e-17, cumulative = 4.74394e-17
Pressure gradient source: uncorrected Ubar = 1.0003, pressure gradient = 0.0347752
smoothSolver:  Solving for omega, Initial residual = 0.00234039, Final residual = 6.43897e-05, No Iterations 1
smoothSolver:  Solving for k, Initial residual = 0.0203395, Final residual = 0.00144061, No Iterations 4
ExecutionTime = 0.025876 s  ClockTime = 0 s

Time = 7s

smoothSolver:  Solving for Ux, Initial residual = 0.011609, Final residual = 0.000836649, No Iterations 5
smoothSolver:  Solving for Uy, Initial residual = 0.480106, Final residual = 0.0267709, No Iterations 3
Pressure gradient source: uncorrected Ubar = 1.00173, pressure gradient = -0.00186508
GAMG:  Solving for p, Initial residual = 0.136879, Final residual = 0.0104196, No Iterations 5
time step continuity errors : sum local = 7.52476e-05, global = -1.63901e-18, cumulative = 4.58003e-17
Pressure gradient source: uncorrected Ubar = 1.00021, pressure gradient = 0.0303464
smoothSolver:  Solving for omega, Initial residual = 0.00118287, Final residual = 3.89232e-05, No Iterations 1
smoothSolver:  Solving for k, Initial residual = 0.0178687, Final residual = 0.00165064, No Iterations 4
ExecutionTime = 0.02827 s  ClockTime = 0 s

Time = 8s

smoothSolver:  Solving for Ux, Initial residual = 0.00942434, Final residual = 0.000694305, No Iterations 5
smoothSolver:  Solving for Uy, Initial residual = 0.535185, Final residual = 0.0297652, No Iterations 3
Pressure gradient source: uncorrected Ubar = 1.00141, pressure gradient = 0.000819815
GAMG:  Solving for p, Initial residual = 0.158832, Final residual = 0.0121256, No Iterations 5
time step continuity errors : sum local = 6.36701e-05, global = -8.20161e-18, cumulative = 3.75987e-17
Pressure gradient source: uncorrected Ubar = 1.00017, pressure gradient = 0.0268214
smoothSolver:  Solving for omega, Initial residual = 0.000702685, Final residual = 2.61214e-05, No Iterations 1
smoothSolver:  Solving for k, Initial residual = 0.0161363, Final residual = 0.00103312, No Iterations 5
ExecutionTime = 0.030342 s  ClockTime = 0 s

Time = 9s

smoothSolver:  Solving for Ux, Initial residual = 0.00782485, Final residual = 0.000586826, No Iterations 5
smoothSolver:  Solving for Uy, Initial residual = 0.560914, Final residual = 0.0341653, No Iterations 3
Pressure gradient source: uncorrected Ubar = 1.00109, pressure gradient = 0.00411508
GAMG:  Solving for p, Initial residual = 0.15081, Final residual = 0.0125866, No Iterations 5
time step continuity errors : sum local = 5.89478e-05, global = -1.88295e-18, cumulative = 3.57158e-17
Pressure gradient source: uncorrected Ubar = 1.00013, pressure gradient = 0.0241616
smoothSolver:  Solving for omega, Initial residual = 0.000383964, Final residual = 1.67767e-05, No Iterations 1
smoothSolver:  Solving for k, Initial residual = 0.0143902, Final residual = 0.0014201, No Iterations 4
ExecutionTime = 0.032368 s  ClockTime = 0 s

Time = 10s

smoothSolver:  Solving for Ux, Initial residual = 0.00662283, Final residual = 0.000503991, No Iterations 5
smoothSolver:  Solving for Uy, Initial residual = 0.543567, Final residual = 0.0350692, No Iterations 3
Pressure gradient source: uncorrected Ubar = 1.00082, pressure gradient = 0.00704105
GAMG:  Solving for p, Initial residual = 0.134709, Final residual = 0.0106788, No Iterations 5
time step continuity errors : sum local = 4.60591e-05, global = 1.31771e-17, cumulative = 4.88929e-17
Pressure gradient source: uncorrected Ubar = 1.00009, pressure gradient = 0.022208
smoothSolver:  Solving for omega, Initial residual = 0.000220701, Final residual = 1.17723e-05, No Iterations 1
smoothSolver:  Solving for k, Initial residual = 0.0129735, Final residual = 0.000950821, No Iterations 4
ExecutionTime = 0.034339 s  ClockTime = 0 s

Time = 11s

smoothSolver:  Solving for Ux, Initial residual = 0.00567229, Final residual = 0.000438283, No Iterations 5
smoothSolver:  Solving for Uy, Initial residual = 0.499114, Final residual = 0.0323449, No Iterations 3
Pressure gradient source: uncorrected Ubar = 1.00068, pressure gradient = 0.00821977
GAMG:  Solving for p, Initial residual = 0.126442, Final residual = 0.0111597, No Iterations 4
time step continuity errors : sum local = 4.10556e-05, global = 8.97098e-18, cumulative = 5.78639e-17
Pressure gradient source: uncorrected Ubar = 1.00008, pressure gradient = 0.0206354
smoothSolver:  Solving for omega, Initial residual = 0.000125133, Final residual = 8.41368e-06, No Iterations 1
smoothSolver:  Solving for k, Initial residual = 0.0119176, Final residual = 0.00076861, No Iterations 5
ExecutionTime = 0.036384 s  ClockTime = 0 s

Time = 12s

smoothSolver:  Solving for Ux, Initial residual = 0.00488912, Final residual = 0.000382751, No Iterations 5
smoothSolver:  Solving for Uy, Initial residual = 0.475786, Final residual = 0.0322518, No Iterations 3
Pressure gradient source: uncorrected Ubar = 1.00057, pressure gradient = 0.0090148
GAMG:  Solving for p, Initial residual = 0.124356, Final residual = 0.0087515, No Iterations 4
time step continuity errors : sum local = 2.78913e-05, global = 6.90972e-18, cumulative = 6.47736e-17
Pressure gradient source: uncorrected Ubar = 1.00006, pressure gradient = 0.0193465
smoothSolver:  Solving for omega, Initial residual = 7.25585e-05, Final residual = 6.3794e-06, No Iterations 1
smoothSolver:  Solving for k, Initial residual = 0.0108351, Final residual = 0.00067891, No Iterations 5
ExecutionTime = 0.038477 s  ClockTime = 0 s

Time = 13s

smoothSolver:  Solving for Ux, Initial residual = 0.00425477, Final residual = 0.000336609, No Iterations 5
smoothSolver:  Solving for Uy, Initial residual = 0.487932, Final residual = 0.0346071, No Iterations 3
Pressure gradient source: uncorrected Ubar = 1.00046, pressure gradient = 0.00988311
GAMG:  Solving for p, Initial residual = 0.117817, Final residual = 0.011267, No Iterations 3
time step continuity errors : sum local = 3.00237e-05, global = 1.63448e-17, cumulative = 8.11184e-17
Pressure gradient source: uncorrected Ubar = 1.00005, pressure gradient = 0.0183165
smoothSolver:  Solving for omega, Initial residual = 4.26307e-05, Final residual = 4.81584e-06, No Iterations 1
smoothSolver:  Solving for k, Initial residual = 0.00984488, Final residual = 0.000846593, No Iterations 4
ExecutionTime = 0.040637 s  ClockTime = 0 s

Time = 14s

smoothSolver:  Solving for Ux, Initial residual = 0.00373571, Final residual = 0.000297473, No Iterations 5
smoothSolver:  Solving for Uy, Initial residual = 0.481609, Final residual = 0.0313419, No Iterations 3
Pressure gradient source: uncorrected Ubar = 1.00039, pressure gradient = 0.0104711
GAMG:  Solving for p, Initial residual = 0.113964, Final residual = 0.0100022, No Iterations 3
time step continuity errors : sum local = 2.27792e-05, global = 3.89932e-18, cumulative = 8.50177e-17
Pressure gradient source: uncorrected Ubar = 1.00004, pressure gradient = 0.0174786
smoothSolver:  Solving for omega, Initial residual = 2.57143e-05, Final residual = 3.93788e-06, No Iterations 1
smoothSolver:  Solving for k, Initial residual = 0.00909403, Final residual = 0.000597995, No Iterations 5
ExecutionTime = 0.043166 s  ClockTime = 0 s

Time = 15s

smoothSolver:  Solving for Ux, Initial residual = 0.00328518, Final residual = 0.000264668, No Iterations 5
smoothSolver:  Solving for Uy, Initial residual = 0.464766, Final residual = 0.0297672, No Iterations 3
Pressure gradient source: uncorrected Ubar = 1.00035, pressure gradient = 0.0102969
GAMG:  Solving for p, Initial residual = 0.110428, Final residual = 0.0103893, No Iterations 3
time step continuity errors : sum local = 2.06743e-05, global = 2.34511e-18, cumulative = 8.73628e-17
Pressure gradient source: uncorrected Ubar = 1.00004, pressure gradient = 0.0167054
smoothSolver:  Solving for omega, Initial residual = 1.60476e-05, Final residual = 3.18276e-06, No Iterations 1
smoothSolver:  Solving for k, Initial residual = 0.00826118, Final residual = 0.000643528, No Iterations 5
ExecutionTime = 0.045169 s  ClockTime = 0 s

Time = 16s

smoothSolver:  Solving for Ux, Initial residual = 0.00290316, Final residual = 0.000235882, No Iterations 5
smoothSolver:  Solving for Uy, Initial residual = 0.43195, Final residual = 0.0262206, No Iterations 3
Pressure gradient source: uncorrected Ubar = 1.00029, pressure gradient = 0.0108257
GAMG:  Solving for p, Initial residual = 0.106183, Final residual = 0.00987125, No Iterations 4
time step continuity errors : sum local = 1.71709e-05, global = 3.66182e-18, cumulative = 9.10246e-17
Pressure gradient source: uncorrected Ubar = 1.00003, pressure gradient = 0.0160884
smoothSolver:  Solving for omega, Initial residual = 1.04027e-05, Final residual = 2.64703e-06, No Iterations 1
smoothSolver:  Solving for k, Initial residual = 0.00745378, Final residual = 0.000542126, No Iterations 5
ExecutionTime = 0.047315 s  ClockTime = 0 s

Time = 17s

smoothSolver:  Solving for Ux, Initial residual = 0.00257506, Final residual = 0.000210873, No Iterations 5
smoothSolver:  Solving for Uy, Initial residual = 0.397445, Final residual = 0.025082, No Iterations 3
Pressure gradient source: uncorrected Ubar = 1.00024, pressure gradient = 0.0113138
GAMG:  Solving for p, Initial residual = 0.105753, Final residual = 0.00838135, No Iterations 4
time step continuity errors : sum local = 1.21384e-05, global = -1.21038e-17, cumulative = 7.89208e-17
Pressure gradient source: uncorrected Ubar = 1.00002, pressure gradient = 0.0156034
smoothSolver:  Solving for omega, Initial residual = 7.09906e-06, Final residual = 7.09906e-06, No Iterations 0
smoothSolver:  Solving for k, Initial residual = 0.0072435, Final residual = 0.000710988, No Iterations 4
ExecutionTime = 0.049412 s  ClockTime = 0 s

Time = 18s

smoothSolver:  Solving for Ux, Initial residual = 0.00228621, Final residual = 0.000188559, No Iterations 5
smoothSolver:  Solving for Uy, Initial residual = 0.373313, Final residual = 0.0227373, No Iterations 3
Pressure gradient source: uncorrected Ubar = 1.00022, pressure gradient = 0.0112174
GAMG:  Solving for p, Initial residual = 0.101109, Final residual = 0.00543632, No Iterations 5
time step continuity errors : sum local = 7.46366e-06, global = 1.16805e-18, cumulative = 8.00889e-17
Pressure gradient source: uncorrected Ubar = 1.00002, pressure gradient = 0.0151541
smoothSolver:  Solving for omega, Initial residual = 7.11622e-06, Final residual = 7.11622e-06, No Iterations 0
smoothSolver:  Solving for k, Initial residual = 0.00736638, Final residual = 0.000511569, No Iterations 5
ExecutionTime = 0.051484 s  ClockTime = 0 s

Time = 19s

smoothSolver:  Solving for Ux, Initial residual = 0.00204231, Final residual = 0.00016925, No Iterations 5
smoothSolver:  Solving for Uy, Initial residual = 0.387798, Final residual = 0.0249974, No Iterations 3
Pressure gradient source: uncorrected Ubar = 1.0002, pressure gradient = 0.0112754
GAMG:  Solving for p, Initial residual = 0.0975331, Final residual = 0.00483718, No Iterations 5
time step continuity errors : sum local = 5.3099e-06, global = -1.41524e-17, cumulative = 6.59365e-17
Pressure gradient source: uncorrected Ubar = 1.00002, pressure gradient = 0.0147594
smoothSolver:  Solving for omega, Initial residual = 7.14185e-06, Final residual = 7.14185e-06, No Iterations 0
smoothSolver:  Solving for k, Initial residual = 0.00737984, Final residual = 0.000437774, No Iterations 5
ExecutionTime = 0.053623 s  ClockTime = 0 s

Time = 20s

smoothSolver:  Solving for Ux, Initial residual = 0.00182533, Final residual = 0.00015241, No Iterations 5
smoothSolver:  Solving for Uy, Initial residual = 0.374881, Final residual = 0.0227335, No Iterations 3
Pressure gradient source: uncorrected Ubar = 1.00017, pressure gradient = 0.0115037
GAMG:  Solving for p, Initial residual = 0.0958095, Final residual = 0.0049943, No Iterations 5
time step continuity errors : sum local = 4.74997e-06, global = -3.27871e-18, cumulative = 6.26578e-17
Pressure gradient source: uncorrected Ubar = 1.00002, pressure gradient = 0.014437
smoothSolver:  Solving for omega, Initial residual = 7.15983e-06, Final residual = 7.15983e-06, No Iterations 0
smoothSolver:  Solving for k, Initial residual = 0.00740479, Final residual = 0.000640306, No Iterations 4
ExecutionTime = 0.055748 s  ClockTime = 0 s

Time = 21s

smoothSolver:  Solving for Ux, Initial residual = 0.00163848, Final residual = 0.000137256, No Iterations 5
smoothSolver:  Solving for Uy, Initial residual = 0.359309, Final residual = 0.0207267, No Iterations 3
Pressure gradient source: uncorrected Ubar = 1.00014, pressure gradient = 0.0116605
GAMG:  Solving for p, Initial residual = 0.0993929, Final residual = 0.00812114, No Iterations 4
time step continuity errors : sum local = 6.87308e-06, global = 7.2213e-18, cumulative = 6.98791e-17
Pressure gradient source: uncorrected Ubar = 1.00001, pressure gradient = 0.0141689
smoothSolver:  Solving for omega, Initial residual = 7.17369e-06, Final residual = 7.17369e-06, No Iterations 0
smoothSolver:  Solving for k, Initial residual = 0.00751612, Final residual = 0.000739478, No Iterations 4
ExecutionTime = 0.058057 s  ClockTime = 0 s

Time = 22s

smoothSolver:  Solving for Ux, Initial residual = 0.00147465, Final residual = 0.000124528, No Iterations 5
smoothSolver:  Solving for Uy, Initial residual = 0.360827, Final residual = 0.0199665, No Iterations 3
Pressure gradient source: uncorrected Ubar = 1.00013, pressure gradient = 0.0117005
GAMG:  Solving for p, Initial residual = 0.0992632, Final residual = 0.00793176, No Iterations 4
time step continuity errors : sum local = 5.73909e-06, global = -2.52548e-18, cumulative = 6.73536e-17
Pressure gradient source: uncorrected Ubar = 1.00001, pressure gradient = 0.0139328
smoothSolver:  Solving for omega, Initial residual = 7.19422e-06, Final residual = 7.19422e-06, No Iterations 0
smoothSolver:  Solving for k, Initial residual = 0.00756992, Final residual = 0.000541978, No Iterations 5
ExecutionTime = 0.060485 s  ClockTime = 0 s

Time = 23s

smoothSolver:  Solving for Ux, Initial residual = 0.00133167, Final residual = 0.000113252, No Iterations 5
smoothSolver:  Solving for Uy, Initial residual = 0.360103, Final residual = 0.0198272, No Iterations 3
Pressure gradient source: uncorrected Ubar = 1.00012, pressure gradient = 0.011685
GAMG:  Solving for p, Initial residual = 0.101945, Final residual = 0.00685737, No Iterations 4
time step continuity errors : sum local = 4.24419e-06, global = 3.11766e-18, cumulative = 7.04713e-17
Pressure gradient source: uncorrected Ubar = 1.00001, pressure gradient = 0.0137177
smoothSolver:  Solving for omega, Initial residual = 7.20734e-06, Final residual = 7.20734e-06, No Iterations 0
smoothSolver:  Solving for k, Initial residual = 0.00757052, Final residual = 0.000732762, No Iterations 4
ExecutionTime = 0.062633 s  ClockTime = 0 s

Time = 24s

smoothSolver:  Solving for Ux, Initial residual = 0.00120516, Final residual = 0.000103258, No Iterations 5
smoothSolver:  Solving for Uy, Initial residual = 0.355617, Final residual = 0.0200279, No Iterations 3
Pressure gradient source: uncorrected Ubar = 1.0001, pressure gradient = 0.0117865
GAMG:  Solving for p, Initial residual = 0.101342, Final residual = 0.00898433, No Iterations 3
time step continuity errors : sum local = 4.75246e-06, global = 6.52778e-18, cumulative = 7.69991e-17
Pressure gradient source: uncorrected Ubar = 1.00001, pressure gradient = 0.013538
smoothSolver:  Solving for omega, Initial residual = 7.21909e-06, Final residual = 7.21909e-06, No Iterations 0
smoothSolver:  Solving for k, Initial residual = 0.00759906, Final residual = 0.000691695, No Iterations 4
ExecutionTime = 0.064639 s  ClockTime = 0 s

Time = 25s

smoothSolver:  Solving for Ux, Initial residual = 0.00109461, Final residual = 9.44533e-05, No Iterations 5
smoothSolver:  Solving for Uy, Initial residual = 0.365757, Final residual = 0.0205249, No Iterations 3
Pressure gradient source: uncorrected Ubar = 1.00009, pressure gradient = 0.0117921
GAMG:  Solving for p, Initial residual = 0.102972, Final residual = 0.0086029, No Iterations 3
time step continuity errors : sum local = 3.84885e-06, global = 1.46808e-19, cumulative = 7.71459e-17
Pressure gradient source: uncorrected Ubar = 1.00001, pressure gradient = 0.0133765
smoothSolver:  Solving for omega, Initial residual = 7.22871e-06, Final residual = 7.22871e-06, No Iterations 0
smoothSolver:  Solving for k, Initial residual = 0.00766506, Final residual = 0.000547757, No Iterations 5
ExecutionTime = 0.066704 s  ClockTime = 0 s

Time = 26s

smoothSolver:  Solving for Ux, Initial residual = 0.00100217, Final residual = 8.65719e-05, No Iterations 5
smoothSolver:  Solving for Uy, Initial residual = 0.365029, Final residual = 0.0215492, No Iterations 3
Pressure gradient source: uncorrected Ubar = 1.00008, pressure gradient = 0.011796
GAMG:  Solving for p, Initial residual = 0.1014, Final residual = 0.00826534, No Iterations 3
time step continuity errors : sum local = 3.09277e-06, global = -8.92603e-18, cumulative = 6.82198e-17
Pressure gradient source: uncorrected Ubar = 1.00001, pressure gradient = 0.0132312
smoothSolver:  Solving for omega, Initial residual = 7.24435e-06, Final residual = 7.24435e-06, No Iterations 0
smoothSolver:  Solving for k, Initial residual = 0.00767748, Final residual = 0.000518971, No Iterations 5
ExecutionTime = 0.068757 s  ClockTime = 0 s

Time = 27s

smoothSolver:  Solving for Ux, Initial residual = 0.000918999, Final residual = 7.95133e-05, No Iterations 5
smoothSolver:  Solving for Uy, Initial residual = 0.360262, Final residual = 0.0214794, No Iterations 3
Pressure gradient source: uncorrected Ubar = 1.00007, pressure gradient = 0.0118263
GAMG:  Solving for p, Initial residual = 0.0990671, Final residual = 0.00810524, No Iterations 3
time step continuity errors : sum local = 2.48762e-06, global = -4.10967e-18, cumulative = 6.41102e-17
Pressure gradient source: uncorrected Ubar = 1.00001, pressure gradient = 0.0131041
smoothSolver:  Solving for omega, Initial residual = 7.26229e-06, Final residual = 7.26229e-06, No Iterations 0
smoothSolver:  Solving for k, Initial residual = 0.00770308, Final residual = 0.000608245, No Iterations 5
ExecutionTime = 0.07077 s  ClockTime = 0 s

Time = 28s

smoothSolver:  Solving for Ux, Initial residual = 0.000846364, Final residual = 7.30724e-05, No Iterations 5
smoothSolver:  Solving for Uy, Initial residual = 0.362464, Final residual = 0.0215095, No Iterations 3
Pressure gradient source: uncorrected Ubar = 1.00007, pressure gradient = 0.0118315
GAMG:  Solving for p, Initial residual = 0.0998504, Final residual = 0.00798778, No Iterations 3
time step continuity errors : sum local = 2.05613e-06, global = 2.25753e-18, cumulative = 6.63677e-17
Pressure gradient source: uncorrected Ubar = 1.00001, pressure gradient = 0.0129898
smoothSolver:  Solving for omega, Initial residual = 7.27661e-06, Final residual = 7.27661e-06, No Iterations 0
smoothSolver:  Solving for k, Initial residual = 0.00764601, Final residual = 0.000439009, No Iterations 5
ExecutionTime = 0.072885 s  ClockTime = 0 s

Time = 29s

smoothSolver:  Solving for Ux, Initial residual = 0.000779291, Final residual = 6.73815e-05, No Iterations 5
smoothSolver:  Solving for Uy, Initial residual = 0.354713, Final residual = 0.0222848, No Iterations 3
Pressure gradient source: uncorrected Ubar = 1.00006, pressure gradient = 0.0118552
GAMG:  Solving for p, Initial residual = 0.0975655, Final residual = 0.008558, No Iterations 3
time step continuity errors : sum local = 1.84258e-06, global = 1.07624e-17, cumulative = 7.71301e-17
Pressure gradient source: uncorrected Ubar = 1.00001, pressure gradient = 0.0128898
smoothSolver:  Solving for omega, Initial residual = 7.28711e-06, Final residual = 7.28711e-06, No Iterations 0
smoothSolver:  Solving for k, Initial residual = 0.00770304, Final residual = 0.00051466, No Iterations 5
ExecutionTime = 0.075234 s  ClockTime = 0 s

Time = 30s

smoothSolver:  Solving for Ux, Initial residual = 0.00071824, Final residual = 6.20392e-05, No Iterations 5
smoothSolver:  Solving for Uy, Initial residual = 0.353668, Final residual = 0.0230475, No Iterations 3
Pressure gradient source: uncorrected Ubar = 1.00005, pressure gradient = 0.0118595
GAMG:  Solving for p, Initial residual = 0.101965, Final residual = 0.00961431, No Iterations 3
time step continuity errors : sum local = 1.76223e-06, global = -5.96398e-18, cumulative = 7.11661e-17
Pressure gradient source: uncorrected Ubar = 1, pressure gradient = 0.0127998
smoothSolver:  Solving for omega, Initial residual = 7.29413e-06, Final residual = 7.29413e-06, No Iterations 0
smoothSolver:  Solving for k, Initial residual = 0.00771519, Final residual = 0.000448491, No Iterations 5
ExecutionTime = 0.077721 s  ClockTime = 0 s

Time = 31s

smoothSolver:  Solving for Ux, Initial residual = 0.000663266, Final residual = 5.73515e-05, No Iterations 5
smoothSolver:  Solving for Uy, Initial residual = 0.32359, Final residual = 0.0208962, No Iterations 3
Pressure gradient source: uncorrected Ubar = 1.00005, pressure gradient = 0.0118684
GAMG:  Solving for p, Initial residual = 0.0978679, Final residual = 0.00578183, No Iterations 4
time step continuity errors : sum local = 9.4698e-07, global = -5.79272e-18, cumulative = 6.53734e-17
Pressure gradient source: uncorrected Ubar = 1, pressure gradient = 0.0127194
smoothSolver:  Solving for omega, Initial residual = 7.30109e-06, Final residual = 7.30109e-06, No Iterations 0
smoothSolver:  Solving for k, Initial residual = 0.00776173, Final residual = 0.000476421, No Iterations 5
ExecutionTime = 0.079783 s  ClockTime = 0 s

Time = 32s

smoothSolver:  Solving for Ux, Initial residual = 0.000614016, Final residual = 5.30462e-05, No Iterations 5
smoothSolver:  Solving for Uy, Initial residual = 0.301411, Final residual = 0.0197022, No Iterations 3
Pressure gradient source: uncorrected Ubar = 1.00004, pressure gradient = 0.0118689
GAMG:  Solving for p, Initial residual = 0.0962093, Final residual = 0.00684166, No Iterations 4
time step continuity errors : sum local = 9.68369e-07, global = 3.27295e-18, cumulative = 6.86464e-17
Pressure gradient source: uncorrected Ubar = 1, pressure gradient = 0.0126466
smoothSolver:  Solving for omega, Initial residual = 7.30643e-06, Final residual = 7.30643e-06, No Iterations 0
smoothSolver:  Solving for k, Initial residual = 0.00779087, Final residual = 0.000565444, No Iterations 5
ExecutionTime = 0.081757 s  ClockTime = 0 s

Time = 33s

smoothSolver:  Solving for Ux, Initial residual = 0.000569487, Final residual = 4.92563e-05, No Iterations 5
smoothSolver:  Solving for Uy, Initial residual = 0.260834, Final residual = 0.0161316, No Iterations 3
Pressure gradient source: uncorrected Ubar = 1.00004, pressure gradient = 0.0118714
GAMG:  Solving for p, Initial residual = 0.0940404, Final residual = 0.00766112, No Iterations 4
time step continuity errors : sum local = 9.01659e-07, global = -1.9961e-18, cumulative = 6.66503e-17
Pressure gradient source: uncorrected Ubar = 1, pressure gradient = 0.0125808
smoothSolver:  Solving for omega, Initial residual = 7.32007e-06, Final residual = 7.32007e-06, No Iterations 0
smoothSolver:  Solving for k, Initial residual = 0.00780841, Final residual = 0.000566164, No Iterations 5
ExecutionTime = 0.083726 s  ClockTime = 0 s

Time = 34s

smoothSolver:  Solving for Ux, Initial residual = 0.000530115, Final residual = 4.58267e-05, No Iterations 5
smoothSolver:  Solving for Uy, Initial residual = 0.241261, Final residual = 0.0150766, No Iterations 3
Pressure gradient source: uncorrected Ubar = 1.00004, pressure gradient = 0.0118755
GAMG:  Solving for p, Initial residual = 0.0873577, Final residual = 0.00873368, No Iterations 3
time step continuity errors : sum local = 8.62767e-07, global = 5.69282e-18, cumulative = 7.23431e-17
Pressure gradient source: uncorrected Ubar = 1, pressure gradient = 0.0125217
smoothSolver:  Solving for omega, Initial residual = 7.32405e-06, Final residual = 7.32405e-06, No Iterations 0
smoothSolver:  Solving for k, Initial residual = 0.00778462, Final residual = 0.000467105, No Iterations 5
ExecutionTime = 0.085761 s  ClockTime = 0 s

Time = 35s

smoothSolver:  Solving for Ux, Initial residual = 0.0004935, Final residual = 4.26863e-05, No Iterations 5
smoothSolver:  Solving for Uy, Initial residual = 0.21261, Final residual = 0.0131252, No Iterations 3
Pressure gradient source: uncorrected Ubar = 1.00003, pressure gradient = 0.011881
GAMG:  Solving for p, Initial residual = 0.086935, Final residual = 0.0070683, No Iterations 4
time step continuity errors : sum local = 6.62291e-07, global = 4.06271e-18, cumulative = 7.64058e-17
Pressure gradient source: uncorrected Ubar = 1, pressure gradient = 0.0124688
smoothSolver:  Solving for omega, Initial residual = 7.32767e-06, Final residual = 7.32767e-06, No Iterations 0
smoothSolver:  Solving for k, Initial residual = 0.0078441, Final residual = 0.00052366, No Iterations 5
ExecutionTime = 0.087945 s  ClockTime = 0 s

Time = 36s

smoothSolver:  Solving for Ux, Initial residual = 0.000460559, Final residual = 3.98644e-05, No Iterations 5
smoothSolver:  Solving for Uy, Initial residual = 0.184724, Final residual = 0.0111666, No Iterations 3
Pressure gradient source: uncorrected Ubar = 1.00003, pressure gradient = 0.0118807
GAMG:  Solving for p, Initial residual = 0.079691, Final residual = 0.00677551, No Iterations 4
time step continuity errors : sum local = 5.72917e-07, global = -6.39943e-19, cumulative = 7.57658e-17
Pressure gradient source: uncorrected Ubar = 1, pressure gradient = 0.0124206
smoothSolver:  Solving for omega, Initial residual = 7.32678e-06, Final residual = 7.32678e-06, No Iterations 0
smoothSolver:  Solving for k, Initial residual = 0.00788998, Final residual = 0.000524313, No Iterations 5
ExecutionTime = 0.090328 s  ClockTime = 0 s

Time = 37s

smoothSolver:  Solving for Ux, Initial residual = 0.00043058, Final residual = 3.73042e-05, No Iterations 5
smoothSolver:  Solving for Uy, Initial residual = 0.155556, Final residual = 0.00931567, No Iterations 3
Pressure gradient source: uncorrected Ubar = 1.00003, pressure gradient = 0.0118802
GAMG:  Solving for p, Initial residual = 0.068752, Final residual = 0.00628911, No Iterations 4
time step continuity errors : sum local = 4.72926e-07, global = -6.27423e-18, cumulative = 6.94916e-17
Pressure gradient source: uncorrected Ubar = 1, pressure gradient = 0.0123767
smoothSolver:  Solving for omega, Initial residual = 7.33287e-06, Final residual = 7.33287e-06, No Iterations 0
smoothSolver:  Solving for k, Initial residual = 0.00787706, Final residual = 0.000501346, No Iterations 5
ExecutionTime = 0.093113 s  ClockTime = 0 s

Time = 38s

smoothSolver:  Solving for Ux, Initial residual = 0.000403047, Final residual = 3.50033e-05, No Iterations 5
smoothSolver:  Solving for Uy, Initial residual = 0.147967, Final residual = 0.0100968, No Iterations 3
Pressure gradient source: uncorrected Ubar = 1.00003, pressure gradient = 0.0118825
GAMG:  Solving for p, Initial residual = 0.0671064, Final residual = 0.00512036, No Iterations 4
time step continuity errors : sum local = 3.50671e-07, global = 4.6621e-18, cumulative = 7.41537e-17
Pressure gradient source: uncorrected Ubar = 1, pressure gradient = 0.0123371
smoothSolver:  Solving for omega, Initial residual = 7.33627e-06, Final residual = 7.33627e-06, No Iterations 0
smoothSolver:  Solving for k, Initial residual = 0.00787472, Final residual = 0.000502344, No Iterations 5
ExecutionTime = 0.095229 s  ClockTime = 0 s

Time = 39s

smoothSolver:  Solving for Ux, Initial residual = 0.000377997, Final residual = 3.28829e-05, No Iterations 5
smoothSolver:  Solving for Uy, Initial residual = 0.111174, Final residual = 0.00723349, No Iterations 3
Pressure gradient source: uncorrected Ubar = 1.00002, pressure gradient = 0.0118829
GAMG:  Solving for p, Initial residual = 0.0575436, Final residual = 0.00501382, No Iterations 4
time step continuity errors : sum local = 3.24926e-07, global = 9.07268e-18, cumulative = 8.32264e-17
Pressure gradient source: uncorrected Ubar = 1, pressure gradient = 0.0123011
smoothSolver:  Solving for omega, Initial residual = 7.33462e-06, Final residual = 7.33462e-06, No Iterations 0
smoothSolver:  Solving for k, Initial residual = 0.00787996, Final residual = 0.000767846, No Iterations 4
ExecutionTime = 0.097234 s  ClockTime = 0 s

Time = 40s

smoothSolver:  Solving for Ux, Initial residual = 0.000355622, Final residual = 3.09824e-05, No Iterations 5
smoothSolver:  Solving for Uy, Initial residual = 0.114666, Final residual = 0.00731482, No Iterations 3
Pressure gradient source: uncorrected Ubar = 1.00002, pressure gradient = 0.0118847
GAMG:  Solving for p, Initial residual = 0.0584307, Final residual = 0.0043521, No Iterations 4
time step continuity errors : sum local = 2.74535e-07, global = -2.13964e-18, cumulative = 8.10868e-17
Pressure gradient source: uncorrected Ubar = 1, pressure gradient = 0.0122685
smoothSolver:  Solving for omega, Initial residual = 7.3406e-06, Final residual = 7.3406e-06, No Iterations 0
smoothSolver:  Solving for k, Initial residual = 0.0079213, Final residual = 0.000486191, No Iterations 5
ExecutionTime = 0.099227 s  ClockTime = 0 s

Time = 41s

smoothSolver:  Solving for Ux, Initial residual = 0.000335175, Final residual = 2.92988e-05, No Iterations 5
smoothSolver:  Solving for Uy, Initial residual = 0.107288, Final residual = 0.00594575, No Iterations 3
Pressure gradient source: uncorrected Ubar = 1.00002, pressure gradient = 0.0118828
GAMG:  Solving for p, Initial residual = 0.0493449, Final residual = 0.00410615, No Iterations 4
time step continuity errors : sum local = 2.49572e-07, global = 5.69776e-18, cumulative = 8.67845e-17
Pressure gradient source: uncorrected Ubar = 1, pressure gradient = 0.0122385
smoothSolver:  Solving for omega, Initial residual = 7.34674e-06, Final residual = 7.34674e-06, No Iterations 0
smoothSolver:  Solving for k, Initial residual = 0.00796766, Final residual = 0.000583925, No Iterations 5
ExecutionTime = 0.101186 s  ClockTime = 0 s

Time = 42s

smoothSolver:  Solving for Ux, Initial residual = 0.000316677, Final residual = 2.77679e-05, No Iterations 5
smoothSolver:  Solving for Uy, Initial residual = 0.104923, Final residual = 0.00646749, No Iterations 3
Pressure gradient source: uncorrected Ubar = 1.00002, pressure gradient = 0.0118802
GAMG:  Solving for p, Initial residual = 0.0474003, Final residual = 0.00306073, No Iterations 5
time step continuity errors : sum local = 1.80001e-07, global = -2.51637e-18, cumulative = 8.42681e-17
Pressure gradient source: uncorrected Ubar = 1, pressure gradient = 0.0122109
smoothSolver:  Solving for omega, Initial residual = 7.34363e-06, Final residual = 7.34363e-06, No Iterations 0
smoothSolver:  Solving for k, Initial residual = 0.00798212, Final residual = 0.000567849, No Iterations 5
ExecutionTime = 0.103343 s  ClockTime = 0 s

Time = 43s

smoothSolver:  Solving for Ux, Initial residual = 0.000299708, Final residual = 2.64015e-05, No Iterations 5
smoothSolver:  Solving for Uy, Initial residual = 0.103136, Final residual = 0.0063183, No Iterations 3
Pressure gradient source: uncorrected Ubar = 1.00002, pressure gradient = 0.0118802
GAMG:  Solving for p, Initial residual = 0.0392378, Final residual = 0.00339008, No Iterations 4
time step continuity errors : sum local = 1.87256e-07, global = 5.48626e-18, cumulative = 8.97544e-17
Pressure gradient source: uncorrected Ubar = 1, pressure gradient = 0.0121856
smoothSolver:  Solving for omega, Initial residual = 7.34389e-06, Final residual = 7.34389e-06, No Iterations 0
smoothSolver:  Solving for k, Initial residual = 0.0079403, Final residual = 0.000460811, No Iterations 5
ExecutionTime = 0.106001 s  ClockTime = 0 s

Time = 44s

smoothSolver:  Solving for Ux, Initial residual = 0.000284089, Final residual = 2.51587e-05, No Iterations 5
smoothSolver:  Solving for Uy, Initial residual = 0.0921213, Final residual = 0.0059337, No Iterations 3
Pressure gradient source: uncorrected Ubar = 1.00002, pressure gradient = 0.0118809
GAMG:  Solving for p, Initial residual = 0.0370616, Final residual = 0.00331749, No Iterations 4
time step continuity errors : sum local = 1.75406e-07, global = -6.05059e-19, cumulative = 8.91493e-17
Pressure gradient source: uncorrected Ubar = 1, pressure gradient = 0.0121627
smoothSolver:  Solving for omega, Initial residual = 7.35053e-06, Final residual = 7.35053e-06, No Iterations 0
smoothSolver:  Solving for k, Initial residual = 0.00794108, Final residual = 0.00079192, No Iterations 4
ExecutionTime = 0.108716 s  ClockTime = 0 s

Time = 45s

smoothSolver:  Solving for Ux, Initial residual = 0.000269808, Final residual = 2.40297e-05, No Iterations 5
smoothSolver:  Solving for Uy, Initial residual = 0.0721366, Final residual = 0.00444565, No Iterations 3
Pressure gradient source: uncorrected Ubar = 1.00001, pressure gradient = 0.0118814
GAMG:  Solving for p, Initial residual = 0.038172, Final residual = 0.00370368, No Iterations 4
time step continuity errors : sum local = 1.86215e-07, global = -3.42302e-18, cumulative = 8.57263e-17
Pressure gradient source: uncorrected Ubar = 1, pressure gradient = 0.0121418
smoothSolver:  Solving for omega, Initial residual = 7.35343e-06, Final residual = 7.35343e-06, No Iterations 0
smoothSolver:  Solving for k, Initial residual = 0.00801068, Final residual = 0.000589256, No Iterations 5
ExecutionTime = 0.110815 s  ClockTime = 0 s

Time = 46s

smoothSolver:  Solving for Ux, Initial residual = 0.000256817, Final residual = 2.30224e-05, No Iterations 5
smoothSolver:  Solving for Uy, Initial residual = 0.0659688, Final residual = 0.00356098, No Iterations 3
Pressure gradient source: uncorrected Ubar = 1.00001, pressure gradient = 0.0118779
GAMG:  Solving for p, Initial residual = 0.0333741, Final residual = 0.00160594, No Iterations 5
time step continuity errors : sum local = 8.03131e-08, global = 8.09682e-18, cumulative = 9.38231e-17
Pressure gradient source: uncorrected Ubar = 1, pressure gradient = 0.0121222
smoothSolver:  Solving for omega, Initial residual = 7.35318e-06, Final residual = 7.35318e-06, No Iterations 0
smoothSolver:  Solving for k, Initial residual = 0.00799255, Final residual = 0.000507125, No Iterations 5
ExecutionTime = 0.112861 s  ClockTime = 0 s

Time = 47s

smoothSolver:  Solving for Ux, Initial residual = 0.000245282, Final residual = 2.21252e-05, No Iterations 5
smoothSolver:  Solving for Uy, Initial residual = 0.0670479, Final residual = 0.00371207, No Iterations 3
Pressure gradient source: uncorrected Ubar = 1.00001, pressure gradient = 0.0118777
GAMG:  Solving for p, Initial residual = 0.0326689, Final residual = 0.00306601, No Iterations 3
time step continuity errors : sum local = 1.38236e-07, global = -6.8647e-18, cumulative = 8.69584e-17
Pressure gradient source: uncorrected Ubar = 1, pressure gradient = 0.0121043
smoothSolver:  Solving for omega, Initial residual = 7.34665e-06, Final residual = 7.34665e-06, No Iterations 0
smoothSolver:  Solving for k, Initial residual = 0.00795918, Final residual = 0.000470819, No Iterations 5
ExecutionTime = 0.114778 s  ClockTime = 0 s

Time = 48s

smoothSolver:  Solving for Ux, Initial residual = 0.000234745, Final residual = 2.1338e-05, No Iterations 5
smoothSolver:  Solving for Uy, Initial residual = 0.070862, Final residual = 0.0048387, No Iterations 3
Pressure gradient source: uncorrected Ubar = 1.00001, pressure gradient = 0.0118767
GAMG:  Solving for p, Initial residual = 0.0357915, Final residual = 0.00278646, No Iterations 4
time step continuity errors : sum local = 1.21166e-07, global = 4.61297e-18, cumulative = 9.15714e-17
Pressure gradient source: uncorrected Ubar = 1, pressure gradient = 0.0120878
smoothSolver:  Solving for omega, Initial residual = 7.34927e-06, Final residual = 7.34927e-06, No Iterations 0
smoothSolver:  Solving for k, Initial residual = 0.00796153, Final residual = 0.000460266, No Iterations 5
ExecutionTime = 0.116755 s  ClockTime = 0 s

Time = 49s

smoothSolver:  Solving for Ux, Initial residual = 0.000225229, Final residual = 2.0647e-05, No Iterations 5
smoothSolver:  Solving for Uy, Initial residual = 0.0710413, Final residual = 0.00442348, No Iterations 3
Pressure gradient source: uncorrected Ubar = 1.00001, pressure gradient = 0.0118756
GAMG:  Solving for p, Initial residual = 0.035157, Final residual = 0.00235447, No Iterations 4
time step continuity errors : sum local = 9.61947e-08, global = 5.16417e-18, cumulative = 9.67356e-17
Pressure gradient source: uncorrected Ubar = 1, pressure gradient = 0.0120726
smoothSolver:  Solving for omega, Initial residual = 7.35368e-06, Final residual = 7.35368e-06, No Iterations 0
smoothSolver:  Solving for k, Initial residual = 0.00802057, Final residual = 0.000572541, No Iterations 5
ExecutionTime = 0.118895 s  ClockTime = 0 s

Time = 50s

smoothSolver:  Solving for Ux, Initial residual = 0.000216596, Final residual = 2.00461e-05, No Iterations 5
smoothSolver:  Solving for Uy, Initial residual = 0.0688821, Final residual = 0.00491596, No Iterations 3
Pressure gradient source: uncorrected Ubar = 1.00001, pressure gradient = 0.011874
GAMG:  Solving for p, Initial residual = 0.0335243, Final residual = 0.00219705, No Iterations 4
time step continuity errors : sum local = 8.52334e-08, global = -6.08325e-19, cumulative = 9.61273e-17
Pressure gradient source: uncorrected Ubar = 1, pressure gradient = 0.0120585
smoothSolver:  Solving for omega, Initial residual = 7.35442e-06, Final residual = 7.35442e-06, No Iterations 0
smoothSolver:  Solving for k, Initial residual = 0.00800656, Final residual = 0.000556752, No Iterations 5
ExecutionTime = 0.120981 s  ClockTime = 0 s

Time = 51s

smoothSolver:  Solving for Ux, Initial residual = 0.000208693, Final residual = 1.95279e-05, No Iterations 5
smoothSolver:  Solving for Uy, Initial residual = 0.0682792, Final residual = 0.00454329, No Iterations 3
Pressure gradient source: uncorrected Ubar = 1.00001, pressure gradient = 0.0118732
GAMG:  Solving for p, Initial residual = 0.0313351, Final residual = 0.00220736, No Iterations 4
time step continuity errors : sum local = 7.96132e-08, global = 7.9416e-18, cumulative = 1.04069e-16
Pressure gradient source: uncorrected Ubar = 1, pressure gradient = 0.0120454
smoothSolver:  Solving for omega, Initial residual = 7.35412e-06, Final residual = 7.35412e-06, No Iterations 0
smoothSolver:  Solving for k, Initial residual = 0.00796889, Final residual = 0.000517698, No Iterations 5
ExecutionTime = 0.12354 s  ClockTime = 0 s

Time = 52s

smoothSolver:  Solving for Ux, Initial residual = 0.000201618, Final residual = 1.90877e-05, No Iterations 5
smoothSolver:  Solving for Uy, Initial residual = 0.0685706, Final residual = 0.00466482, No Iterations 3
Pressure gradient source: uncorrected Ubar = 1.00001, pressure gradient = 0.0118717
GAMG:  Solving for p, Initial residual = 0.0341546, Final residual = 0.00319138, No Iterations 3
time step continuity errors : sum local = 1.08805e-07, global = -2.01923e-19, cumulative = 1.03867e-16
Pressure gradient source: uncorrected Ubar = 1, pressure gradient = 0.0120333
smoothSolver:  Solving for omega, Initial residual = 7.35272e-06, Final residual = 7.35272e-06, No Iterations 0
smoothSolver:  Solving for k, Initial residual = 0.00799485, Final residual = 0.000496511, No Iterations 5
ExecutionTime = 0.125581 s  ClockTime = 0 s

Time = 53s

smoothSolver:  Solving for Ux, Initial residual = 0.000195285, Final residual = 1.87181e-05, No Iterations 5
smoothSolver:  Solving for Uy, Initial residual = 0.0633512, Final residual = 0.00427125, No Iterations 3
Pressure gradient source: uncorrected Ubar = 1.00001, pressure gradient = 0.0118708
GAMG:  Solving for p, Initial residual = 0.0292156, Final residual = 0.00224489, No Iterations 4
time step continuity errors : sum local = 7.33019e-08, global = 1.06003e-17, cumulative = 1.14467e-16
Pressure gradient source: uncorrected Ubar = 1, pressure gradient = 0.012022
smoothSolver:  Solving for omega, Initial residual = 7.35105e-06, Final residual = 7.35105e-06, No Iterations 0
smoothSolver:  Solving for k, Initial residual = 0.00799265, Final residual = 0.00052858, No Iterations 5
ExecutionTime = 0.127877 s  ClockTime = 0 s

Time = 54s

smoothSolver:  Solving for Ux, Initial residual = 0.000189884, Final residual = 1.84228e-05, No Iterations 5
smoothSolver:  Solving for Uy, Initial residual = 0.0622449, Final residual = 0.00422952, No Iterations 3
Pressure gradient source: uncorrected Ubar = 1.00001, pressure gradient = 0.0118695
GAMG:  Solving for p, Initial residual = 0.028097, Final residual = 0.00216368, No Iterations 4
time step continuity errors : sum local = 6.76998e-08, global = -6.11507e-18, cumulative = 1.08352e-16
Pressure gradient source: uncorrected Ubar = 1, pressure gradient = 0.0120115
smoothSolver:  Solving for omega, Initial residual = 7.35384e-06, Final residual = 7.35384e-06, No Iterations 0
smoothSolver:  Solving for k, Initial residual = 0.00798885, Final residual = 0.000554419, No Iterations 5
ExecutionTime = 0.130867 s  ClockTime = 0 s

Time = 55s

smoothSolver:  Solving for Ux, Initial residual = 0.000185275, Final residual = 1.81655e-05, No Iterations 5
smoothSolver:  Solving for Uy, Initial residual = 0.0592096, Final residual = 0.00406763, No Iterations 3
Pressure gradient source: uncorrected Ubar = 1.00001, pressure gradient = 0.0118678
GAMG:  Solving for p, Initial residual = 0.0265141, Final residual = 0.00260768, No Iterations 3
time step continuity errors : sum local = 7.84923e-08, global = -9.81547e-18, cumulative = 9.85367e-17
Pressure gradient source: uncorrected Ubar = 1, pressure gradient = 0.0120017
smoothSolver:  Solving for omega, Initial residual = 7.35696e-06, Final residual = 7.35696e-06, No Iterations 0
smoothSolver:  Solving for k, Initial residual = 0.00796592, Final residual = 0.000494012, No Iterations 5
ExecutionTime = 0.133093 s  ClockTime = 0 s

Time = 56s

smoothSolver:  Solving for Ux, Initial residual = 0.00018116, Final residual = 1.79075e-05, No Iterations 5
smoothSolver:  Solving for Uy, Initial residual = 0.0521773, Final residual = 0.00363443, No Iterations 3
Pressure gradient source: uncorrected Ubar = 1.00001, pressure gradient = 0.0118669
GAMG:  Solving for p, Initial residual = 0.0237699, Final residual = 0.00132781, No Iterations 4
time step continuity errors : sum local = 3.90458e-08, global = 2.98162e-18, cumulative = 1.01518e-16
Pressure gradient source: uncorrected Ubar = 1, pressure gradient = 0.0119926
smoothSolver:  Solving for omega, Initial residual = 7.35793e-06, Final residual = 7.35793e-06, No Iterations 0
smoothSolver:  Solving for k, Initial residual = 0.00798718, Final residual = 0.000504281, No Iterations 5
ExecutionTime = 0.135199 s  ClockTime = 0 s

Time = 57s

smoothSolver:  Solving for Ux, Initial residual = 0.000177159, Final residual = 1.76378e-05, No Iterations 5
smoothSolver:  Solving for Uy, Initial residual = 0.049767, Final residual = 0.00387553, No Iterations 3
Pressure gradient source: uncorrected Ubar = 1.00001, pressure gradient = 0.0118657
GAMG:  Solving for p, Initial residual = 0.023752, Final residual = 0.0021905, No Iterations 3
time step continuity errors : sum local = 6.17622e-08, global = 2.9893e-18, cumulative = 1.04508e-16
Pressure gradient source: uncorrected Ubar = 1, pressure gradient = 0.0119841
smoothSolver:  Solving for omega, Initial residual = 7.35367e-06, Final residual = 7.35367e-06, No Iterations 0
smoothSolver:  Solving for k, Initial residual = 0.00792105, Final residual = 0.000449499, No Iterations 5
ExecutionTime = 0.137186 s  ClockTime = 0 s

Time = 58s

smoothSolver:  Solving for Ux, Initial residual = 0.000173337, Final residual = 1.14906e-05, No Iterations 6
smoothSolver:  Solving for Uy, Initial residual = 0.0467504, Final residual = 0.00334834, No Iterations 3
Pressure gradient source: uncorrected Ubar = 1, pressure gradient = 0.0118947
GAMG:  Solving for p, Initial residual = 0.0491434, Final residual = 0.00307216, No Iterations 5
time step continuity errors : sum local = 7.98609e-08, global = 3.61583e-18, cumulative = 1.08123e-16
Pressure gradient source: uncorrected Ubar = 1, pressure gradient = 0.0119787
smoothSolver:  Solving for omega, Initial residual = 7.35507e-06, Final residual = 7.35507e-06, No Iterations 0
smoothSolver:  Solving for k, Initial residual = 0.0079899, Final residual = 0.000553713, No Iterations 5
ExecutionTime = 0.139877 s  ClockTime = 0 s

Time = 59s

smoothSolver:  Solving for Ux, Initial residual = 0.000169103, Final residual = 1.12607e-05, No Iterations 6
smoothSolver:  Solving for Uy, Initial residual = 0.158553, Final residual = 0.00943507, No Iterations 3
Pressure gradient source: uncorrected Ubar = 1.00001, pressure gradient = 0.0118819
GAMG:  Solving for p, Initial residual = 0.05099, Final residual = 0.00320872, No Iterations 6
time step continuity errors : sum local = 7.95261e-08, global = -2.90884e-18, cumulative = 1.05215e-16
Pressure gradient source: uncorrected Ubar = 1, pressure gradient = 0.011972
smoothSolver:  Solving for omega, Initial residual = 7.34612e-06, Final residual = 7.34612e-06, No Iterations 0
smoothSolver:  Solving for k, Initial residual = 0.0079745, Final residual = 0.000559431, No Iterations 5
ExecutionTime = 0.142049 s  ClockTime = 0 s

Time = 60s

smoothSolver:  Solving for Ux, Initial residual = 0.0001651, Final residual = 1.10474e-05, No Iterations 6
smoothSolver:  Solving for Uy, Initial residual = 0.207678, Final residual = 0.0120464, No Iterations 3
Pressure gradient source: uncorrected Ubar = 1, pressure gradient = 0.0118788
GAMG:  Solving for p, Initial residual = 0.052691, Final residual = 0.0029589, No Iterations 6
time step continuity errors : sum local = 6.55481e-08, global = 1.22684e-18, cumulative = 1.06441e-16
Pressure gradient source: uncorrected Ubar = 1, pressure gradient = 0.0119654
smoothSolver:  Solving for omega, Initial residual = 7.34314e-06, Final residual = 7.34314e-06, No Iterations 0
smoothSolver:  Solving for k, Initial residual = 0.00791828, Final residual = 0.00045013, No Iterations 5
ExecutionTime = 0.145294 s  ClockTime = 0 s

Time = 61s

smoothSolver:  Solving for Ux, Initial residual = 0.000161249, Final residual = 1.08384e-05, No Iterations 6
smoothSolver:  Solving for Uy, Initial residual = 0.179001, Final residual = 0.0118793, No Iterations 3
Pressure gradient source: uncorrected Ubar = 1, pressure gradient = 0.0118762
GAMG:  Solving for p, Initial residual = 0.0492269, Final residual = 0.00454801, No Iterations 5
time step continuity errors : sum local = 8.71985e-08, global = 5.39104e-18, cumulative = 1.11832e-16
Pressure gradient source: uncorrected Ubar = 1, pressure gradient = 0.0119591
smoothSolver:  Solving for omega, Initial residual = 7.34778e-06, Final residual = 7.34778e-06, No Iterations 0
smoothSolver:  Solving for k, Initial residual = 0.00792426, Final residual = 0.000455226, No Iterations 5
ExecutionTime = 0.147502 s  ClockTime = 0 s

Time = 62s

smoothSolver:  Solving for Ux, Initial residual = 0.000157499, Final residual = 1.06292e-05, No Iterations 6
smoothSolver:  Solving for Uy, Initial residual = 0.131409, Final residual = 0.00994283, No Iterations 3
Pressure gradient source: uncorrected Ubar = 1, pressure gradient = 0.011874
GAMG:  Solving for p, Initial residual = 0.044356, Final residual = 0.00333697, No Iterations 5
time step continuity errors : sum local = 5.65042e-08, global = -6.29694e-18, cumulative = 1.05536e-16
Pressure gradient source: uncorrected Ubar = 1, pressure gradient = 0.0119531
smoothSolver:  Solving for omega, Initial residual = 7.34887e-06, Final residual = 7.34887e-06, No Iterations 0
smoothSolver:  Solving for k, Initial residual = 0.00795225, Final residual = 0.000593055, No Iterations 5
ExecutionTime = 0.149745 s  ClockTime = 0 s

Time = 63s

smoothSolver:  Solving for Ux, Initial residual = 0.00015394, Final residual = 1.04272e-05, No Iterations 6
smoothSolver:  Solving for Uy, Initial residual = 0.109058, Final residual = 0.00859736, No Iterations 3
Pressure gradient source: uncorrected Ubar = 1, pressure gradient = 0.0118716
GAMG:  Solving for p, Initial residual = 0.0387487, Final residual = 0.00266276, No Iterations 5
time step continuity errors : sum local = 4.36174e-08, global = 3.92441e-18, cumulative = 1.0946e-16
Pressure gradient source: uncorrected Ubar = 1, pressure gradient = 0.0119473
smoothSolver:  Solving for omega, Initial residual = 7.35071e-06, Final residual = 7.35071e-06, No Iterations 0
smoothSolver:  Solving for k, Initial residual = 0.00793274, Final residual = 0.000489426, No Iterations 5
ExecutionTime = 0.151969 s  ClockTime = 0 s

Time = 64s

smoothSolver:  Solving for Ux, Initial residual = 0.000150421, Final residual = 1.02282e-05, No Iterations 6
smoothSolver:  Solving for Uy, Initial residual = 0.0941691, Final residual = 0.00794765, No Iterations 3
Pressure gradient source: uncorrected Ubar = 1, pressure gradient = 0.0118699
GAMG:  Solving for p, Initial residual = 0.0315506, Final residual = 0.00260333, No Iterations 4
time step continuity errors : sum local = 3.8982e-08, global = 7.13841e-18, cumulative = 1.16598e-16
Pressure gradient source: uncorrected Ubar = 1, pressure gradient = 0.0119419
smoothSolver:  Solving for omega, Initial residual = 7.34979e-06, Final residual = 7.34979e-06, No Iterations 0
smoothSolver:  Solving for k, Initial residual = 0.00788485, Final residual = 0.000748906, No Iterations 4
ExecutionTime = 0.154041 s  ClockTime = 0 s

Time = 65s

smoothSolver:  Solving for Ux, Initial residual = 0.000146924, Final residual = 1.00273e-05, No Iterations 6
smoothSolver:  Solving for Uy, Initial residual = 0.0843957, Final residual = 0.0069002, No Iterations 3
Pressure gradient source: uncorrected Ubar = 1, pressure gradient = 0.0118683
GAMG:  Solving for p, Initial residual = 0.0308433, Final residual = 0.00179834, No Iterations 4
time step continuity errors : sum local = 2.54564e-08, global = 5.62627e-18, cumulative = 1.22225e-16
Pressure gradient source: uncorrected Ubar = 1, pressure gradient = 0.0119367
smoothSolver:  Solving for omega, Initial residual = 7.34682e-06, Final residual = 7.34682e-06, No Iterations 0
smoothSolver:  Solving for k, Initial residual = 0.00790754, Final residual = 0.000490143, No Iterations 5
ExecutionTime = 0.156126 s  ClockTime = 0 s

Time = 66s

smoothSolver:  Solving for Ux, Initial residual = 0.000143499, Final residual = 9.8284e-06, No Iterations 6
smoothSolver:  Solving for Uy, Initial residual = 0.0669948, Final residual = 0.0053316, No Iterations 3
Pressure gradient source: uncorrected Ubar = 1, pressure gradient = 0.0118662
GAMG:  Solving for p, Initial residual = 0.0246383, Final residual = 0.00204564, No Iterations 4
time step continuity errors : sum local = 2.79199e-08, global = -1.01236e-18, cumulative = 1.21212e-16
Pressure gradient source: uncorrected Ubar = 1, pressure gradient = 0.0119318
smoothSolver:  Solving for omega, Initial residual = 7.34268e-06, Final residual = 7.34268e-06, No Iterations 0
smoothSolver:  Solving for k, Initial residual = 0.00786097, Final residual = 0.000767406, No Iterations 4
ExecutionTime = 0.158592 s  ClockTime = 0 s

Time = 67s

smoothSolver:  Solving for Ux, Initial residual = 0.000140126, Final residual = 9.6301e-06, No Iterations 6
smoothSolver:  Solving for Uy, Initial residual = 0.0596204, Final residual = 0.0044529, No Iterations 3
Pressure gradient source: uncorrected Ubar = 1, pressure gradient = 0.0118649
GAMG:  Solving for p, Initial residual = 0.021847, Final residual = 0.00195775, No Iterations 5
time step continuity errors : sum local = 2.54746e-08, global = 3.31469e-18, cumulative = 1.24527e-16
Pressure gradient source: uncorrected Ubar = 1, pressure gradient = 0.0119271
smoothSolver:  Solving for omega, Initial residual = 7.34396e-06, Final residual = 7.34396e-06, No Iterations 0
smoothSolver:  Solving for k, Initial residual = 0.00791795, Final residual = 0.000574325, No Iterations 5
ExecutionTime = 0.160813 s  ClockTime = 0 s

Time = 68s

smoothSolver:  Solving for Ux, Initial residual = 0.000136857, Final residual = 9.43713e-06, No Iterations 6
smoothSolver:  Solving for Uy, Initial residual = 0.0525146, Final residual = 0.00408557, No Iterations 3
Pressure gradient source: uncorrected Ubar = 1, pressure gradient = 0.0118628
GAMG:  Solving for p, Initial residual = 0.0196265, Final residual = 0.00179148, No Iterations 5
time step continuity errors : sum local = 2.294e-08, global = 5.05558e-18, cumulative = 1.29583e-16
Pressure gradient source: uncorrected Ubar = 1, pressure gradient = 0.0119226
smoothSolver:  Solving for omega, Initial residual = 7.34398e-06, Final residual = 7.34398e-06, No Iterations 0
smoothSolver:  Solving for k, Initial residual = 0.00791454, Final residual = 0.000625378, No Iterations 5
ExecutionTime = 0.162891 s  ClockTime = 0 s

Time = 69s

smoothSolver:  Solving for Ux, Initial residual = 0.000133644, Final residual = 9.24548e-06, No Iterations 6
smoothSolver:  Solving for Uy, Initial residual = 0.0486486, Final residual = 0.00390894, No Iterations 3
Pressure gradient source: uncorrected Ubar = 1, pressure gradient = 0.0118612
GAMG:  Solving for p, Initial residual = 0.019054, Final residual = 0.00144511, No Iterations 5
time step continuity errors : sum local = 1.79835e-08, global = -6.33829e-18, cumulative = 1.23244e-16
Pressure gradient source: uncorrected Ubar = 1, pressure gradient = 0.0119183
smoothSolver:  Solving for omega, Initial residual = 7.34364e-06, Final residual = 7.34364e-06, No Iterations 0
smoothSolver:  Solving for k, Initial residual = 0.00784534, Final residual = 0.000475553, No Iterations 5
ExecutionTime = 0.164903 s  ClockTime = 0 s

Time = 70s

smoothSolver:  Solving for Ux, Initial residual = 0.000130478, Final residual = 9.05331e-06, No Iterations 6
smoothSolver:  Solving for Uy, Initial residual = 0.0442907, Final residual = 0.00343526, No Iterations 3
Pressure gradient source: uncorrected Ubar = 1, pressure gradient = 0.01186
GAMG:  Solving for p, Initial residual = 0.0179841, Final residual = 0.00121732, No Iterations 4
time step continuity errors : sum local = 1.47616e-08, global = -5.81402e-18, cumulative = 1.1743e-16
Pressure gradient source: uncorrected Ubar = 1, pressure gradient = 0.0119142
smoothSolver:  Solving for omega, Initial residual = 7.34865e-06, Final residual = 7.34865e-06, No Iterations 0
smoothSolver:  Solving for k, Initial residual = 0.00787294, Final residual = 0.000554361, No Iterations 5
ExecutionTime = 0.16686 s  ClockTime = 0 s

Time = 71s

smoothSolver:  Solving for Ux, Initial residual = 0.00012737, Final residual = 8.86276e-06, No Iterations 6
smoothSolver:  Solving for Uy, Initial residual = 0.0424949, Final residual = 0.00319098, No Iterations 3
Pressure gradient source: uncorrected Ubar = 1, pressure gradient = 0.0118585
GAMG:  Solving for p, Initial residual = 0.0159585, Final residual = 0.000923949, No Iterations 4
time step continuity errors : sum local = 1.10475e-08, global = 3.97992e-19, cumulative = 1.17828e-16
Pressure gradient source: uncorrected Ubar = 1, pressure gradient = 0.0119103
smoothSolver:  Solving for omega, Initial residual = 7.346e-06, Final residual = 7.346e-06, No Iterations 0
smoothSolver:  Solving for k, Initial residual = 0.00784651, Final residual = 0.000495663, No Iterations 5
ExecutionTime = 0.168931 s  ClockTime = 0 s

Time = 72s

smoothSolver:  Solving for Ux, Initial residual = 0.000124308, Final residual = 8.67255e-06, No Iterations 6
smoothSolver:  Solving for Uy, Initial residual = 0.0410599, Final residual = 0.00281734, No Iterations 3
Pressure gradient source: uncorrected Ubar = 1, pressure gradient = 0.0118572
GAMG:  Solving for p, Initial residual = 0.0140079, Final residual = 0.00128975, No Iterations 3
time step continuity errors : sum local = 1.54377e-08, global = 9.51178e-18, cumulative = 1.2734e-16
Pressure gradient source: uncorrected Ubar = 1, pressure gradient = 0.0119067
smoothSolver:  Solving for omega, Initial residual = 7.34696e-06, Final residual = 7.34696e-06, No Iterations 0
smoothSolver:  Solving for k, Initial residual = 0.00780555, Final residual = 0.000469426, No Iterations 5
ExecutionTime = 0.170896 s  ClockTime = 0 s

Time = 73s

smoothSolver:  Solving for Ux, Initial residual = 0.00012134, Final residual = 8.48539e-06, No Iterations 6
smoothSolver:  Solving for Uy, Initial residual = 0.0359735, Final residual = 0.00246432, No Iterations 3
Pressure gradient source: uncorrected Ubar = 1, pressure gradient = 0.0118557
GAMG:  Solving for p, Initial residual = 0.014328, Final residual = 0.000766976, No Iterations 4
time step continuity errors : sum local = 8.73146e-09, global = -3.6758e-18, cumulative = 1.23664e-16
Pressure gradient source: uncorrected Ubar = 1, pressure gradient = 0.0119031
smoothSolver:  Solving for omega, Initial residual = 7.34568e-06, Final residual = 7.34568e-06, No Iterations 0
smoothSolver:  Solving for k, Initial residual = 0.00779898, Final residual = 0.000463669, No Iterations 5
ExecutionTime = 0.17313 s  ClockTime = 0 s

Time = 74s

smoothSolver:  Solving for Ux, Initial residual = 0.000118456, Final residual = 8.29954e-06, No Iterations 6
smoothSolver:  Solving for Uy, Initial residual = 0.0353302, Final residual = 0.0025542, No Iterations 3
Pressure gradient source: uncorrected Ubar = 1, pressure gradient = 0.0118545
GAMG:  Solving for p, Initial residual = 0.0142595, Final residual = 0.00101465, No Iterations 5
time step continuity errors : sum local = 1.19446e-08, global = -3.44593e-18, cumulative = 1.20218e-16
Pressure gradient source: uncorrected Ubar = 1, pressure gradient = 0.0118998
smoothSolver:  Solving for omega, Initial residual = 7.34891e-06, Final residual = 7.34891e-06, No Iterations 0
smoothSolver:  Solving for k, Initial residual = 0.00782795, Final residual = 0.000599968, No Iterations 5
ExecutionTime = 0.1754 s  ClockTime = 0 s

Time = 75s

smoothSolver:  Solving for Ux, Initial residual = 0.000115636, Final residual = 8.11695e-06, No Iterations 6
smoothSolver:  Solving for Uy, Initial residual = 0.035283, Final residual = 0.00234306, No Iterations 3
Pressure gradient source: uncorrected Ubar = 1, pressure gradient = 0.0118531
GAMG:  Solving for p, Initial residual = 0.0131479, Final residual = 0.00085037, No Iterations 5
time step continuity errors : sum local = 9.79584e-09, global = 5.57423e-18, cumulative = 1.25792e-16
Pressure gradient source: uncorrected Ubar = 1, pressure gradient = 0.0118966
smoothSolver:  Solving for omega, Initial residual = 7.34314e-06, Final residual = 7.34314e-06, No Iterations 0
smoothSolver:  Solving for k, Initial residual = 0.00780189, Final residual = 0.000444934, No Iterations 5
ExecutionTime = 0.178438 s  ClockTime = 0 s

Time = 76s

smoothSolver:  Solving for Ux, Initial residual = 0.000112856, Final residual = 7.93691e-06, No Iterations 6
smoothSolver:  Solving for Uy, Initial residual = 0.0326486, Final residual = 0.00212224, No Iterations 3
Pressure gradient source: uncorrected Ubar = 1, pressure gradient = 0.011852
GAMG:  Solving for p, Initial residual = 0.0127114, Final residual = 0.000867135, No Iterations 5
time step continuity errors : sum local = 1.0164e-08, global = 4.28294e-18, cumulative = 1.30075e-16
Pressure gradient source: uncorrected Ubar = 1, pressure gradient = 0.0118935
smoothSolver:  Solving for omega, Initial residual = 7.34113e-06, Final residual = 7.34113e-06, No Iterations 0
smoothSolver:  Solving for k, Initial residual = 0.00783587, Final residual = 0.000582307, No Iterations 5
ExecutionTime = 0.180543 s  ClockTime = 0 s

Time = 77s

smoothSolver:  Solving for Ux, Initial residual = 0.000110143, Final residual = 7.76068e-06, No Iterations 6
smoothSolver:  Solving for Uy, Initial residual = 0.032199, Final residual = 0.00203967, No Iterations 3
Pressure gradient source: uncorrected Ubar = 1, pressure gradient = 0.0118507
GAMG:  Solving for p, Initial residual = 0.0127864, Final residual = 0.00114328, No Iterations 5
time step continuity errors : sum local = 1.20907e-08, global = -4.35037e-18, cumulative = 1.25725e-16
Pressure gradient source: uncorrected Ubar = 1, pressure gradient = 0.0118906
smoothSolver:  Solving for omega, Initial residual = 7.3407e-06, Final residual = 7.3407e-06, No Iterations 0
smoothSolver:  Solving for k, Initial residual = 0.00776709, Final residual = 0.00049311, No Iterations 5
ExecutionTime = 0.182547 s  ClockTime = 0 s

Time = 78s

smoothSolver:  Solving for Ux, Initial residual = 0.000107472, Final residual = 7.58667e-06, No Iterations 6
smoothSolver:  Solving for Uy, Initial residual = 0.0325776, Final residual = 0.00198199, No Iterations 3
Pressure gradient source: uncorrected Ubar = 1, pressure gradient = 0.0118496
GAMG:  Solving for p, Initial residual = 0.012154, Final residual = 0.000786984, No Iterations 6
time step continuity errors : sum local = 8.02581e-09, global = -9.63825e-18, cumulative = 1.16087e-16
Pressure gradient source: uncorrected Ubar = 1, pressure gradient = 0.0118878
smoothSolver:  Solving for omega, Initial residual = 7.34346e-06, Final residual = 7.34346e-06, No Iterations 0
smoothSolver:  Solving for k, Initial residual = 0.00777207, Final residual = 0.00046718, No Iterations 5
ExecutionTime = 0.184552 s  ClockTime = 0 s

Time = 79s

smoothSolver:  Solving for Ux, Initial residual = 0.000104855, Final residual = 7.41504e-06, No Iterations 6
smoothSolver:  Solving for Uy, Initial residual = 0.0324099, Final residual = 0.00193248, No Iterations 3
Pressure gradient source: uncorrected Ubar = 1, pressure gradient = 0.0118484
GAMG:  Solving for p, Initial residual = 0.0132186, Final residual = 0.000828327, No Iterations 6
time step continuity errors : sum local = 8.24195e-09, global = 5.09546e-18, cumulative = 1.21182e-16
Pressure gradient source: uncorrected Ubar = 1, pressure gradient = 0.0118851
smoothSolver:  Solving for omega, Initial residual = 7.33701e-06, Final residual = 7.33701e-06, No Iterations 0
smoothSolver:  Solving for k, Initial residual = 0.00780508, Final residual = 0.00057793, No Iterations 5
ExecutionTime = 0.18662 s  ClockTime = 0 s

Time = 80s

smoothSolver:  Solving for Ux, Initial residual = 0.000102302, Final residual = 7.24623e-06, No Iterations 6
smoothSolver:  Solving for Uy, Initial residual = 0.0336175, Final residual = 0.00202256, No Iterations 3
Pressure gradient source: uncorrected Ubar = 1, pressure gradient = 0.0118473
GAMG:  Solving for p, Initial residual = 0.0129782, Final residual = 0.000797446, No Iterations 6
time step continuity errors : sum local = 7.71549e-09, global = 5.23517e-18, cumulative = 1.26417e-16
Pressure gradient source: uncorrected Ubar = 1, pressure gradient = 0.0118825
smoothSolver:  Solving for omega, Initial residual = 7.33626e-06, Final residual = 7.33626e-06, No Iterations 0
smoothSolver:  Solving for k, Initial residual = 0.00781491, Final residual = 0.000624261, No Iterations 5
ExecutionTime = 0.188931 s  ClockTime = 0 s

Time = 81s

smoothSolver:  Solving for Ux, Initial residual = 9.97922e-05, Final residual = 7.07977e-06, No Iterations 6
smoothSolver:  Solving for Uy, Initial residual = 0.0342829, Final residual = 0.00209197, No Iterations 3
Pressure gradient source: uncorrected Ubar = 1, pressure gradient = 0.0118462
GAMG:  Solving for p, Initial residual = 0.0127925, Final residual = 0.000807162, No Iterations 6
time step continuity errors : sum local = 7.6551e-09, global = 7.55553e-18, cumulative = 1.33973e-16
Pressure gradient source: uncorrected Ubar = 1, pressure gradient = 0.0118801
smoothSolver:  Solving for omega, Initial residual = 7.33896e-06, Final residual = 7.33896e-06, No Iterations 0
smoothSolver:  Solving for k, Initial residual = 0.00777585, Final residual = 0.000583339, No Iterations 5
ExecutionTime = 0.191658 s  ClockTime = 0 s

Time = 82s

smoothSolver:  Solving for Ux, Initial residual = 9.73406e-05, Final residual = 6.91638e-06, No Iterations 6
smoothSolver:  Solving for Uy, Initial residual = 0.0330563, Final residual = 0.00206119, No Iterations 3
Pressure gradient source: uncorrected Ubar = 1, pressure gradient = 0.0118452
GAMG:  Solving for p, Initial residual = 0.0124599, Final residual = 0.000810786, No Iterations 6
time step continuity errors : sum local = 7.45457e-09, global = -6.28565e-18, cumulative = 1.27687e-16
Pressure gradient source: uncorrected Ubar = 1, pressure gradient = 0.0118777
smoothSolver:  Solving for omega, Initial residual = 7.33775e-06, Final residual = 7.33775e-06, No Iterations 0
smoothSolver:  Solving for k, Initial residual = 0.00774644, Final residual = 0.000474951, No Iterations 5
ExecutionTime = 0.193822 s  ClockTime = 0 s

Time = 83s

smoothSolver:  Solving for Ux, Initial residual = 9.49286e-05, Final residual = 6.75548e-06, No Iterations 6
smoothSolver:  Solving for Uy, Initial residual = 0.0316113, Final residual = 0.00197194, No Iterations 3
Pressure gradient source: uncorrected Ubar = 1, pressure gradient = 0.0118442
GAMG:  Solving for p, Initial residual = 0.0118343, Final residual = 0.00077634, No Iterations 6
time step continuity errors : sum local = 7.02056e-09, global = -4.22672e-18, cumulative = 1.23461e-16
Pressure gradient source: uncorrected Ubar = 1, pressure gradient = 0.0118754
smoothSolver:  Solving for omega, Initial residual = 7.33684e-06, Final residual = 7.33684e-06, No Iterations 0
smoothSolver:  Solving for k, Initial residual = 0.00775891, Final residual = 0.000524376, No Iterations 5
ExecutionTime = 0.196065 s  ClockTime = 0 s

Time = 84s

smoothSolver:  Solving for Ux, Initial residual = 9.25728e-05, Final residual = 9.9471e-06, No Iterations 5
smoothSolver:  Solving for Uy, Initial residual = 0.0307879, Final residual = 0.00197262, No Iterations 3
Pressure gradient source: uncorrected Ubar = 1, pressure gradient = 0.0118321
GAMG:  Solving for p, Initial residual = 0.0387442, Final residual = 0.00294345, No Iterations 5
time step continuity errors : sum local = 2.88003e-08, global = -1.08374e-18, cumulative = 1.22377e-16
Pressure gradient source: uncorrected Ubar = 1, pressure gradient = 0.0118722
smoothSolver:  Solving for omega, Initial residual = 7.33634e-06, Final residual = 7.33634e-06, No Iterations 0
smoothSolver:  Solving for k, Initial residual = 0.00774831, Final residual = 0.000563731, No Iterations 5
ExecutionTime = 0.19872 s  ClockTime = 0 s

Time = 85s

smoothSolver:  Solving for Ux, Initial residual = 9.04382e-05, Final residual = 9.74281e-06, No Iterations 5
smoothSolver:  Solving for Uy, Initial residual = 0.0725519, Final residual = 0.00443956, No Iterations 3
Pressure gradient source: uncorrected Ubar = 1, pressure gradient = 0.0118352
GAMG:  Solving for p, Initial residual = 0.0296549, Final residual = 0.00189745, No Iterations 7
time step continuity errors : sum local = 1.79422e-08, global = 3.49869e-18, cumulative = 1.25876e-16
Pressure gradient source: uncorrected Ubar = 1, pressure gradient = 0.0118698
smoothSolver:  Solving for omega, Initial residual = 7.33257e-06, Final residual = 7.33257e-06, No Iterations 0
smoothSolver:  Solving for k, Initial residual = 0.00770978, Final residual = 0.000486926, No Iterations 5
ExecutionTime = 0.20087 s  ClockTime = 0 s

Time = 86s

smoothSolver:  Solving for Ux, Initial residual = 8.83111e-05, Final residual = 9.53375e-06, No Iterations 5
smoothSolver:  Solving for Uy, Initial residual = 0.0826587, Final residual = 0.00535589, No Iterations 3
Pressure gradient source: uncorrected Ubar = 1, pressure gradient = 0.0118349
GAMG:  Solving for p, Initial residual = 0.0244821, Final residual = 0.00241621, No Iterations 5
time step continuity errors : sum local = 2.43962e-08, global = 7.01986e-18, cumulative = 1.32895e-16
Pressure gradient source: uncorrected Ubar = 1, pressure gradient = 0.0118676
smoothSolver:  Solving for omega, Initial residual = 7.33196e-06, Final residual = 7.33196e-06, No Iterations 0
smoothSolver:  Solving for k, Initial residual = 0.0077013, Final residual = 0.000446654, No Iterations 5
ExecutionTime = 0.202921 s  ClockTime = 0 s

Time = 87s

smoothSolver:  Solving for Ux, Initial residual = 8.6215e-05, Final residual = 9.32496e-06, No Iterations 5
smoothSolver:  Solving for Uy, Initial residual = 0.0620822, Final residual = 0.00443437, No Iterations 3
Pressure gradient source: uncorrected Ubar = 1, pressure gradient = 0.0118346
GAMG:  Solving for p, Initial residual = 0.0172947, Final residual = 0.00144536, No Iterations 7
time step continuity errors : sum local = 1.53801e-08, global = 6.75554e-18, cumulative = 1.39651e-16
Pressure gradient source: uncorrected Ubar = 1, pressure gradient = 0.0118655
smoothSolver:  Solving for omega, Initial residual = 7.33081e-06, Final residual = 7.33081e-06, No Iterations 0
smoothSolver:  Solving for k, Initial residual = 0.0077307, Final residual = 0.000567688, No Iterations 5
ExecutionTime = 0.205188 s  ClockTime = 0 s

Time = 88s

smoothSolver:  Solving for Ux, Initial residual = 8.41576e-05, Final residual = 9.11822e-06, No Iterations 5
smoothSolver:  Solving for Uy, Initial residual = 0.0423904, Final residual = 0.00333584, No Iterations 3
Pressure gradient source: uncorrected Ubar = 1, pressure gradient = 0.011834
GAMG:  Solving for p, Initial residual = 0.00989837, Final residual = 0.000579431, No Iterations 6
time step continuity errors : sum local = 6.53358e-09, global = 8.45051e-19, cumulative = 1.40496e-16
Pressure gradient source: uncorrected Ubar = 1, pressure gradient = 0.0118635
smoothSolver:  Solving for omega, Initial residual = 7.33218e-06, Final residual = 7.33218e-06, No Iterations 0
smoothSolver:  Solving for k, Initial residual = 0.0077274, Final residual = 0.000548804, No Iterations 5
ExecutionTime = 0.207377 s  ClockTime = 0 s

Time = 89s

smoothSolver:  Solving for Ux, Initial residual = 8.21404e-05, Final residual = 8.91354e-06, No Iterations 5
smoothSolver:  Solving for Uy, Initial residual = 0.0269766, Final residual = 0.00217682, No Iterations 3
Pressure gradient source: uncorrected Ubar = 1, pressure gradient = 0.0118335
GAMG:  Solving for p, Initial residual = 0.00617097, Final residual = 0.000471078, No Iterations 3
time step continuity errors : sum local = 5.12254e-09, global = 9.54493e-18, cumulative = 1.50041e-16
Pressure gradient source: uncorrected Ubar = 1, pressure gradient = 0.0118617
smoothSolver:  Solving for omega, Initial residual = 7.33429e-06, Final residual = 7.33429e-06, No Iterations 0
smoothSolver:  Solving for k, Initial residual = 0.00768471, Final residual = 0.000492389, No Iterations 5
ExecutionTime = 0.209393 s  ClockTime = 0 s

Time = 90s

smoothSolver:  Solving for Ux, Initial residual = 8.01613e-05, Final residual = 8.71139e-06, No Iterations 5
[...]
time step continuity errors : sum local = 6.81444e-09, global = 5.44898e-18, cumulative = 1.97127e-16
Pressure gradient source: uncorrected Ubar = 1, pressure gradient = 0.0118137
smoothSolver:  Solving for omega, Initial residual = 7.30408e-06, Final residual = 7.30408e-06, No Iterations 0
smoothSolver:  Solving for k, Initial residual = 0.00740987, Final residual = 0.000456068, No Iterations 5
ExecutionTime = 0.348551 s  ClockTime = 0 s

Time = 150s

smoothSolver:  Solving for Ux, Initial residual = 2.1223e-05, Final residual = 8.48716e-06, No Iterations 2
smoothSolver:  Solving for Uy, Initial residual = 0.0155932, Final residual = 0.000927852, No Iterations 3
Pressure gradient source: uncorrected Ubar = 1, pressure gradient = 0.0118122
GAMG:  Solving for p, Initial residual = 0.0085864, Final residual = 0.000654034, No Iterations 5
time step continuity errors : sum local = 6.30464e-09, global = 5.39114e-18, cumulative = 2.02518e-16
Pressure gradient source: uncorrected Ubar = 1, pressure gradient = 0.0118135
smoothSolver:  Solving for omega, Initial residual = 7.30505e-06, Final residual = 7.30505e-06, No Iterations 0
smoothSolver:  Solving for k, Initial residual = 0.00739607, Final residual = 0.000721327, No Iterations 4
ExecutionTime = 0.350484 s  ClockTime = 0 s

Time = 151s

smoothSolver:  Solving for Ux, Initial residual = 2.0839e-05, Final residual = 8.33859e-06, No Iterations 2
smoothSolver:  Solving for Uy, Initial residual = 0.0180401, Final residual = 0.00100566, No Iterations 3
Pressure gradient source: uncorrected Ubar = 1, pressure gradient = 0.0118121
GAMG:  Solving for p, Initial residual = 0.00890903, Final residual = 0.000727521, No Iterations 5
time step continuity errors : sum local = 6.83245e-09, global = -7.53387e-18, cumulative = 1.94984e-16
Pressure gradient source: uncorrected Ubar = 1, pressure gradient = 0.0118133
smoothSolver:  Solving for omega, Initial residual = 7.30426e-06, Final residual = 7.30426e-06, No Iterations 0
smoothSolver:  Solving for k, Initial residual = 0.00740633, Final residual = 0.000480861, No Iterations 5
ExecutionTime = 0.352526 s  ClockTime = 0 s

Time = 152s

smoothSolver:  Solving for Ux, Initial residual = 2.04608e-05, Final residual = 8.19179e-06, No Iterations 2
smoothSolver:  Solving for Uy, Initial residual = 0.019644, Final residual = 0.0011551, No Iterations 3
Pressure gradient source: uncorrected Ubar = 1, pressure gradient = 0.011812
GAMG:  Solving for p, Initial residual = 0.00934958, Final residual = 0.000784044, No Iterations 5
time step continuity errors : sum local = 7.24338e-09, global = -8.6812e-18, cumulative = 1.86303e-16
Pressure gradient source: uncorrected Ubar = 1, pressure gradient = 0.0118132
smoothSolver:  Solving for omega, Initial residual = 7.30732e-06, Final residual = 7.30732e-06, No Iterations 0
smoothSolver:  Solving for k, Initial residual = 0.00744858, Final residual = 0.000568934, No Iterations 5
ExecutionTime = 0.354607 s  ClockTime = 0 s

Time = 153s

smoothSolver:  Solving for Ux, Initial residual = 2.00885e-05, Final residual = 8.04684e-06, No Iterations 2
smoothSolver:  Solving for Uy, Initial residual = 0.0211663, Final residual = 0.00128647, No Iterations 3
Pressure gradient source: uncorrected Ubar = 1, pressure gradient = 0.0118119
GAMG:  Solving for p, Initial residual = 0.0098916, Final residual = 0.000854547, No Iterations 5
time step continuity errors : sum local = 7.75014e-09, global = -7.24816e-18, cumulative = 1.79055e-16
Pressure gradient source: uncorrected Ubar = 1, pressure gradient = 0.011813
smoothSolver:  Solving for omega, Initial residual = 7.30604e-06, Final residual = 7.30604e-06, No Iterations 0
smoothSolver:  Solving for k, Initial residual = 0.00738224, Final residual = 0.000706658, No Iterations 4
ExecutionTime = 0.356823 s  ClockTime = 0 s

Time = 154s

smoothSolver:  Solving for Ux, Initial residual = 1.9722e-05, Final residual = 7.90381e-06, No Iterations 2
smoothSolver:  Solving for Uy, Initial residual = 0.0222579, Final residual = 0.00139322, No Iterations 3
Pressure gradient source: uncorrected Ubar = 1, pressure gradient = 0.0118119
GAMG:  Solving for p, Initial residual = 0.0103154, Final residual = 0.000920951, No Iterations 5
time step continuity errors : sum local = 8.57871e-09, global = -3.87213e-18, cumulative = 1.75182e-16
Pressure gradient source: uncorrected Ubar = 1, pressure gradient = 0.0118129
smoothSolver:  Solving for omega, Initial residual = 7.30362e-06, Final residual = 7.30362e-06, No Iterations 0
smoothSolver:  Solving for k, Initial residual = 0.00741145, Final residual = 0.000462563, No Iterations 5
ExecutionTime = 0.359861 s  ClockTime = 0 s

Time = 155s

smoothSolver:  Solving for Ux, Initial residual = 1.93615e-05, Final residual = 7.76276e-06, No Iterations 2
smoothSolver:  Solving for Uy, Initial residual = 0.0235192, Final residual = 0.00148523, No Iterations 3
Pressure gradient source: uncorrected Ubar = 1, pressure gradient = 0.0118118
GAMG:  Solving for p, Initial residual = 0.010586, Final residual = 0.000939569, No Iterations 5
time step continuity errors : sum local = 8.12512e-09, global = -6.56611e-18, cumulative = 1.68616e-16
Pressure gradient source: uncorrected Ubar = 1, pressure gradient = 0.0118128
smoothSolver:  Solving for omega, Initial residual = 7.30748e-06, Final residual = 7.30748e-06, No Iterations 0
smoothSolver:  Solving for k, Initial residual = 0.00739694, Final residual = 0.000431287, No Iterations 5
ExecutionTime = 0.362126 s  ClockTime = 0 s

Time = 156s

smoothSolver:  Solving for Ux, Initial residual = 1.90069e-05, Final residual = 7.62375e-06, No Iterations 2
smoothSolver:  Solving for Uy, Initial residual = 0.0240775, Final residual = 0.00154206, No Iterations 3
Pressure gradient source: uncorrected Ubar = 1, pressure gradient = 0.0118117
GAMG:  Solving for p, Initial residual = 0.0107346, Final residual = 0.000941063, No Iterations 5
time step continuity errors : sum local = 7.9366e-09, global = 1.60495e-18, cumulative = 1.70221e-16
Pressure gradient source: uncorrected Ubar = 1, pressure gradient = 0.0118126
smoothSolver:  Solving for omega, Initial residual = 7.30854e-06, Final residual = 7.30854e-06, No Iterations 0
smoothSolver:  Solving for k, Initial residual = 0.00740052, Final residual = 0.000457381, No Iterations 5
ExecutionTime = 0.364222 s  ClockTime = 0 s

Time = 157s

smoothSolver:  Solving for Ux, Initial residual = 1.86582e-05, Final residual = 7.48679e-06, No Iterations 2
smoothSolver:  Solving for Uy, Initial residual = 0.0245262, Final residual = 0.00158934, No Iterations 3
Pressure gradient source: uncorrected Ubar = 1, pressure gradient = 0.0118116
GAMG:  Solving for p, Initial residual = 0.0108182, Final residual = 0.000940889, No Iterations 5
time step continuity errors : sum local = 7.7922e-09, global = -3.74781e-18, cumulative = 1.66473e-16
Pressure gradient source: uncorrected Ubar = 1, pressure gradient = 0.0118125
smoothSolver:  Solving for omega, Initial residual = 7.3077e-06, Final residual = 7.3077e-06, No Iterations 0
smoothSolver:  Solving for k, Initial residual = 0.00741907, Final residual = 0.000496517, No Iterations 5
ExecutionTime = 0.36632 s  ClockTime = 0 s

Time = 158s

smoothSolver:  Solving for Ux, Initial residual = 1.83153e-05, Final residual = 7.35192e-06, No Iterations 2
smoothSolver:  Solving for Uy, Initial residual = 0.0251709, Final residual = 0.00163228, No Iterations 3
Pressure gradient source: uncorrected Ubar = 1, pressure gradient = 0.0118116
GAMG:  Solving for p, Initial residual = 0.0108444, Final residual = 0.000939675, No Iterations 5
time step continuity errors : sum local = 7.63544e-09, global = 1.99937e-18, cumulative = 1.68473e-16
Pressure gradient source: uncorrected Ubar = 1, pressure gradient = 0.0118124
smoothSolver:  Solving for omega, Initial residual = 7.30837e-06, Final residual = 7.30837e-06, No Iterations 0
smoothSolver:  Solving for k, Initial residual = 0.00742315, Final residual = 0.00049578, No Iterations 5
ExecutionTime = 0.368364 s  ClockTime = 0 s

Time = 159s

smoothSolver:  Solving for Ux, Initial residual = 1.79784e-05, Final residual = 7.21915e-06, No Iterations 2
smoothSolver:  Solving for Uy, Initial residual = 0.0256166, Final residual = 0.00167067, No Iterations 3
Pressure gradient source: uncorrected Ubar = 1, pressure gradient = 0.0118115
GAMG:  Solving for p, Initial residual = 0.0108188, Final residual = 0.000937288, No Iterations 5
time step continuity errors : sum local = 7.47117e-09, global = 3.03641e-18, cumulative = 1.71509e-16
Pressure gradient source: uncorrected Ubar = 1, pressure gradient = 0.0118123
smoothSolver:  Solving for omega, Initial residual = 7.30417e-06, Final residual = 7.30417e-06, No Iterations 0
smoothSolver:  Solving for k, Initial residual = 0.00737052, Final residual = 0.000715452, No Iterations 4
ExecutionTime = 0.370418 s  ClockTime = 0 s

Time = 160s

smoothSolver:  Solving for Ux, Initial residual = 1.76472e-05, Final residual = 7.08847e-06, No Iterations 2
smoothSolver:  Solving for Uy, Initial residual = 0.0258905, Final residual = 0.0016968, No Iterations 3
Pressure gradient source: uncorrected Ubar = 1, pressure gradient = 0.0118114
GAMG:  Solving for p, Initial residual = 0.010757, Final residual = 0.000933916, No Iterations 5
time step continuity errors : sum local = 7.29814e-09, global = -2.57765e-18, cumulative = 1.68932e-16
Pressure gradient source: uncorrected Ubar = 1, pressure gradient = 0.0118122
smoothSolver:  Solving for omega, Initial residual = 7.30201e-06, Final residual = 7.30201e-06, No Iterations 0
smoothSolver:  Solving for k, Initial residual = 0.00737521, Final residual = 0.000734651, No Iterations 4
ExecutionTime = 0.372488 s  ClockTime = 0 s

Time = 161s

smoothSolver:  Solving for Ux, Initial residual = 1.73218e-05, Final residual = 6.9599e-06, No Iterations 2
smoothSolver:  Solving for Uy, Initial residual = 0.0260292, Final residual = 0.00171243, No Iterations 3
Pressure gradient source: uncorrected Ubar = 1, pressure gradient = 0.0118113
GAMG:  Solving for p, Initial residual = 0.010671, Final residual = 0.000929036, No Iterations 5
time step continuity errors : sum local = 7.11432e-09, global = 8.24086e-18, cumulative = 1.77172e-16
Pressure gradient source: uncorrected Ubar = 1, pressure gradient = 0.0118121
smoothSolver:  Solving for omega, Initial residual = 7.30573e-06, Final residual = 7.30573e-06, No Iterations 0
smoothSolver:  Solving for k, Initial residual = 0.00739076, Final residual = 0.000466858, No Iterations 5
ExecutionTime = 0.374573 s  ClockTime = 0 s

Time = 162s

smoothSolver:  Solving for Ux, Initial residual = 1.70028e-05, Final residual = 6.83343e-06, No Iterations 2
smoothSolver:  Solving for Uy, Initial residual = 0.0260882, Final residual = 0.00171936, No Iterations 3
Pressure gradient source: uncorrected Ubar = 1, pressure gradient = 0.0118113
GAMG:  Solving for p, Initial residual = 0.0105708, Final residual = 0.000922425, No Iterations 5
time step continuity errors : sum local = 6.91972e-09, global = -9.35855e-18, cumulative = 1.67814e-16
Pressure gradient source: uncorrected Ubar = 1, pressure gradient = 0.011812
smoothSolver:  Solving for omega, Initial residual = 7.30623e-06, Final residual = 7.30623e-06, No Iterations 0
smoothSolver:  Solving for k, Initial residual = 0.00739554, Final residual = 0.000483021, No Iterations 5
ExecutionTime = 0.37664 s  ClockTime = 0 s

Time = 163s

smoothSolver:  Solving for Ux, Initial residual = 1.66895e-05, Final residual = 6.70905e-06, No Iterations 2
smoothSolver:  Solving for Uy, Initial residual = 0.0260774, Final residual = 0.0017194, No Iterations 3
Pressure gradient source: uncorrected Ubar = 1, pressure gradient = 0.0118112
GAMG:  Solving for p, Initial residual = 0.0104636, Final residual = 0.000915447, No Iterations 5
time step continuity errors : sum local = 6.72625e-09, global = 6.01247e-18, cumulative = 1.73826e-16
Pressure gradient source: uncorrected Ubar = 1, pressure gradient = 0.0118118
smoothSolver:  Solving for omega, Initial residual = 7.29987e-06, Final residual = 7.29987e-06, No Iterations 0
smoothSolver:  Solving for k, Initial residual = 0.00738044, Final residual = 0.000458906, No Iterations 5
ExecutionTime = 0.379176 s  ClockTime = 0 s

Time = 164s

smoothSolver:  Solving for Ux, Initial residual = 1.6382e-05, Final residual = 6.58674e-06, No Iterations 2
smoothSolver:  Solving for Uy, Initial residual = 0.0260094, Final residual = 0.00171433, No Iterations 3
Pressure gradient source: uncorrected Ubar = 1, pressure gradient = 0.0118111
GAMG:  Solving for p, Initial residual = 0.0103585, Final residual = 0.000908524, No Iterations 5
time step continuity errors : sum local = 6.53781e-09, global = -1.37201e-18, cumulative = 1.72454e-16
Pressure gradient source: uncorrected Ubar = 1, pressure gradient = 0.0118118
smoothSolver:  Solving for omega, Initial residual = 7.30193e-06, Final residual = 7.30193e-06, No Iterations 0
smoothSolver:  Solving for k, Initial residual = 0.00738561, Final residual = 0.000470759, No Iterations 5
ExecutionTime = 0.382567 s  ClockTime = 0 s

Time = 165s

smoothSolver:  Solving for Ux, Initial residual = 1.60798e-05, Final residual = 9.95727e-06, No Iterations 1
smoothSolver:  Solving for Uy, Initial residual = 0.025901, Final residual = 0.00170569, No Iterations 3
Pressure gradient source: uncorrected Ubar = 1, pressure gradient = 0.011808
GAMG:  Solving for p, Initial residual = 0.020386, Final residual = 0.00162832, No Iterations 6
time step continuity errors : sum local = 1.16507e-08, global = -4.17594e-18, cumulative = 1.68278e-16
Pressure gradient source: uncorrected Ubar = 1, pressure gradient = 0.0118097
smoothSolver:  Solving for omega, Initial residual = 7.30447e-06, Final residual = 7.30447e-06, No Iterations 0
smoothSolver:  Solving for k, Initial residual = 0.0074077, Final residual = 0.000553129, No Iterations 5
ExecutionTime = 0.386302 s  ClockTime = 0 s

Time = 166s

smoothSolver:  Solving for Ux, Initial residual = 1.59609e-05, Final residual = 9.92387e-06, No Iterations 1
smoothSolver:  Solving for Uy, Initial residual = 0.0510767, Final residual = 0.00290241, No Iterations 3
Pressure gradient source: uncorrected Ubar = 1, pressure gradient = 0.0118109
GAMG:  Solving for p, Initial residual = 0.0238934, Final residual = 0.00222279, No Iterations 5
time step continuity errors : sum local = 1.76305e-08, global = 2.98905e-18, cumulative = 1.71267e-16
Pressure gradient source: uncorrected Ubar = 1, pressure gradient = 0.0118093
smoothSolver:  Solving for omega, Initial residual = 7.30485e-06, Final residual = 7.30485e-06, No Iterations 0
smoothSolver:  Solving for k, Initial residual = 0.00738138, Final residual = 0.000485889, No Iterations 5
ExecutionTime = 0.390042 s  ClockTime = 0 s

Time = 167s

smoothSolver:  Solving for Ux, Initial residual = 1.57776e-05, Final residual = 9.83246e-06, No Iterations 1
smoothSolver:  Solving for Uy, Initial residual = 0.071788, Final residual = 0.00383752, No Iterations 3
Pressure gradient source: uncorrected Ubar = 1, pressure gradient = 0.011811
GAMG:  Solving for p, Initial residual = 0.0229834, Final residual = 0.00147556, No Iterations 6
time step continuity errors : sum local = 1.15546e-08, global = -1.3487e-17, cumulative = 1.5778e-16
Pressure gradient source: uncorrected Ubar = 1, pressure gradient = 0.011809
smoothSolver:  Solving for omega, Initial residual = 7.30697e-06, Final residual = 7.30697e-06, No Iterations 0
smoothSolver:  Solving for k, Initial residual = 0.00741171, Final residual = 0.000525753, No Iterations 5
ExecutionTime = 0.392457 s  ClockTime = 0 s

Time = 168s

smoothSolver:  Solving for Ux, Initial residual = 1.55911e-05, Final residual = 9.73127e-06, No Iterations 1
smoothSolver:  Solving for Uy, Initial residual = 0.0624982, Final residual = 0.00310183, No Iterations 3
Pressure gradient source: uncorrected Ubar = 1, pressure gradient = 0.0118109
GAMG:  Solving for p, Initial residual = 0.0188617, Final residual = 0.000860596, No Iterations 4
time step continuity errors : sum local = 6.74842e-09, global = 6.46811e-18, cumulative = 1.64249e-16
Pressure gradient source: uncorrected Ubar = 1, pressure gradient = 0.0118088
smoothSolver:  Solving for omega, Initial residual = 7.30847e-06, Final residual = 7.30847e-06, No Iterations 0
smoothSolver:  Solving for k, Initial residual = 0.00737423, Final residual = 0.000431988, No Iterations 5
ExecutionTime = 0.394492 s  ClockTime = 0 s

Time = 169s

smoothSolver:  Solving for Ux, Initial residual = 1.54038e-05, Final residual = 9.6259e-06, No Iterations 1
smoothSolver:  Solving for Uy, Initial residual = 0.0441283, Final residual = 0.00230837, No Iterations 3
Pressure gradient source: uncorrected Ubar = 1, pressure gradient = 0.0118108
GAMG:  Solving for p, Initial residual = 0.0137707, Final residual = 0.00103891, No Iterations 5
time step continuity errors : sum local = 8.63283e-09, global = -4.15623e-18, cumulative = 1.60092e-16
Pressure gradient source: uncorrected Ubar = 1, pressure gradient = 0.0118087
smoothSolver:  Solving for omega, Initial residual = 7.30677e-06, Final residual = 7.30677e-06, No Iterations 0
smoothSolver:  Solving for k, Initial residual = 0.00733428, Final residual = 0.000711408, No Iterations 4
ExecutionTime = 0.396532 s  ClockTime = 0 s

Time = 170s

smoothSolver:  Solving for Ux, Initial residual = 1.52173e-05, Final residual = 9.5189e-06, No Iterations 1
smoothSolver:  Solving for Uy, Initial residual = 0.0261218, Final residual = 0.00143469, No Iterations 3
Pressure gradient source: uncorrected Ubar = 1, pressure gradient = 0.0118108
GAMG:  Solving for p, Initial residual = 0.00991031, Final residual = 0.00082567, No Iterations 5
time step continuity errors : sum local = 6.67817e-09, global = -1.1421e-17, cumulative = 1.48671e-16
Pressure gradient source: uncorrected Ubar = 1, pressure gradient = 0.0118086
smoothSolver:  Solving for omega, Initial residual = 7.30575e-06, Final residual = 7.30575e-06, No Iterations 0
smoothSolver:  Solving for k, Initial residual = 0.00737517, Final residual = 0.00044803, No Iterations 5
ExecutionTime = 0.398463 s  ClockTime = 0 s

Time = 171s

smoothSolver:  Solving for Ux, Initial residual = 1.50318e-05, Final residual = 9.41108e-06, No Iterations 1
smoothSolver:  Solving for Uy, Initial residual = 0.0132568, Final residual = 0.000740056, No Iterations 3
Pressure gradient source: uncorrected Ubar = 1, pressure gradient = 0.0118107
GAMG:  Solving for p, Initial residual = 0.00691967, Final residual = 0.000396316, No Iterations 5
time step continuity errors : sum local = 3.49736e-09, global = 2.28906e-18, cumulative = 1.5096e-16
Pressure gradient source: uncorrected Ubar = 1, pressure gradient = 0.0118085
smoothSolver:  Solving for omega, Initial residual = 7.3052e-06, Final residual = 7.3052e-06, No Iterations 0
smoothSolver:  Solving for k, Initial residual = 0.00737153, Final residual = 0.000482117, No Iterations 5
ExecutionTime = 0.400395 s  ClockTime = 0 s

Time = 172s

smoothSolver:  Solving for Ux, Initial residual = 1.48477e-05, Final residual = 9.30293e-06, No Iterations 1
smoothSolver:  Solving for Uy, Initial residual = 0.00690916, Final residual = 0.000423301, No Iterations 3
Pressure gradient source: uncorrected Ubar = 1, pressure gradient = 0.0118106
GAMG:  Solving for p, Initial residual = 0.00613439, Final residual = 0.000453768, No Iterations 5
time step continuity errors : sum local = 3.81004e-09, global = -7.70201e-18, cumulative = 1.43258e-16
Pressure gradient source: uncorrected Ubar = 1, pressure gradient = 0.0118084
smoothSolver:  Solving for omega, Initial residual = 7.30216e-06, Final residual = 7.30216e-06, No Iterations 0
smoothSolver:  Solving for k, Initial residual = 0.00735388, Final residual = 0.000454772, No Iterations 5
ExecutionTime = 0.402384 s  ClockTime = 0 s


SIMPLE solution converged in 172 iterations

End

