/*---------------------------------------------------------------------------*\
  =========                 |
  \\      /  F ield         | OpenFOAM: The Open Source CFD Toolbox
   \\    /   O peration     | Website:  https://openfoam.org
    \\  /    A nd           | Version:  10
     \\/     M anipulation  |
\*---------------------------------------------------------------------------*/
Build  : 10-e450dce21ea5
Exec   : blockMesh
Date   : Feb 20 2023
Time   : 14:16:14
Host   : "w530-R9YK46P"
PID    : 18933
I/O    : uncollated
Case   : /home/jdmezazeron/gitDanielMezaZ/turbulenceVisualized/Data/SimulationFiles/K33_Re4187
nProcs : 1
sigFpe : Enabling floating point exception trapping (FOAM_SIGFPE).
fileModificationChecking : Monitoring run-time modified files using timeStampMaster (fileModificationSkew 10)
allowSystemOperations : Allowing user-supplied system call operations

// * * * * * * * * * * * * * * * * * * * * * * * * * * * * * * * * * * * * * //
Create time

Deleting polyMesh directory
    "/home/jdmezazeron/gitDanielMezaZ/turbulenceVisualized/Data/SimulationFiles/K33_Re4187/constant/polyMesh"
Reading "blockMeshDict"

Creating block mesh from
    "system/blockMeshDict"
Creating block edges
No non-planar block faces defined
Creating topology blocks
Creating topology patches

Creating block mesh topology

Check topology

	Basic statistics
		Number of internal faces : 0
		Number of boundary faces : 6
		Number of defined boundary faces : 6
		Number of undefined boundary faces : 0
	Checking patch -> block consistency

Creating block offsets
Creating merge list .

Creating polyMesh from blockMesh
Creating patches
Creating cells
Creating points with scale 1
    Block 0 cell size :
        i : 0.5
        j : 0.00461374 .. 0.018455
        k : 2

Detected cyclic patches; ordering boundary faces

Writing polyMesh
----------------
Mesh Information
----------------
  boundingBox: (-1 0 -1) (1 1 1)
  nPoints: 1010
  nCells: 400
  nFaces: 1704
  nInternalFaces: 696
----------------
Patches
----------------
  patch 0 (start: 696 size: 100) name: inlet
  patch 1 (start: 796 size: 100) name: outlet
  patch 2 (start: 896 size: 4) name: fixedWalls-bottom
  patch 3 (start: 900 size: 4) name: fixedWalls-top
  patch 4 (start: 904 size: 800) name: frontAndBack

End

/*---------------------------------------------------------------------------*\
  =========                 |
  \\      /  F ield         | OpenFOAM: The Open Source CFD Toolbox
   \\    /   O peration     | Website:  https://openfoam.org
    \\  /    A nd           | Version:  10
     \\/     M anipulation  |
\*---------------------------------------------------------------------------*/
Build  : 10-e450dce21ea5
Exec   : simpleFoam
Date   : Feb 20 2023
Time   : 14:16:14
Host   : "w530-R9YK46P"
PID    : 18934
I/O    : uncollated
Case   : /home/jdmezazeron/gitDanielMezaZ/turbulenceVisualized/Data/SimulationFiles/K33_Re4187
nProcs : 1
sigFpe : Enabling floating point exception trapping (FOAM_SIGFPE).
fileModificationChecking : Monitoring run-time modified files using timeStampMaster (fileModificationSkew 10)
allowSystemOperations : Allowing user-supplied system call operations

// * * * * * * * * * * * * * * * * * * * * * * * * * * * * * * * * * * * * * //
Create time

Create mesh for time = 0


SIMPLE: Convergence criteria found
        U: tolerance 0.0001
        p: tolerance 0.01
        omega: tolerance 0.0001

Reading field p

Reading field U

Reading/calculating face flux field phi

Selecting viscosity model Newtonian
Selecting turbulence model type RAS
Selecting RAS turbulence model kOmegaSST
Selecting patchDistMethod meshWave
RAS
{
    RASModel        kOmegaSST;
    turbulence      on;
    printCoeffs     on;
    alphaK1         0.85;
    alphaK2         1;
    alphaOmega1     0.5;
    alphaOmega2     0.856;
    gamma1          0.555556;
    gamma2          0.44;
    beta1           0.075;
    beta2           0.0828;
    betaStar        0.09;
    a1              0.31;
    b1              1;
    c1              10;
    F3              false;
}

No MRF models present

--> FOAM Warning : Creating fvModels from "system/fvOptions" rather than constant/fvModels
No fvModels present
--> FOAM Warning : Creating fvConstraints from "system/fvOptions"

Selecting finite volume constraint type meanVelocityForce
    Name: momentumSource
    - selecting all cells
    - selected 400 cell(s) with volume 4
    Initial pressure gradient = 0


Starting time loop

turbulenceFields stressComponents: storing fields:
    R

Time = 1s

smoothSolver:  Solving for Ux, Initial residual = 0, Final residual = 0, No Iterations 0
smoothSolver:  Solving for Uy, Initial residual = 0, Final residual = 0, No Iterations 0
Pressure gradient source: uncorrected Ubar = 0, pressure gradient = 1146.23
GAMG:  Solving for p, Initial residual = 0.999996, Final residual = 0.0570864, No Iterations 3
time step continuity errors : sum local = 8.09433e-17, global = 4.0359e-18, cumulative = 4.0359e-18
Pressure gradient source: uncorrected Ubar = 0.884653, pressure gradient = 132.214
smoothSolver:  Solving for omega, Initial residual = 0.243566, Final residual = 0.0147165, No Iterations 3
smoothSolver:  Solving for k, Initial residual = 1, Final residual = 0.0641564, No Iterations 4
ExecutionTime = 0.014031 s  ClockTime = 0 s

Time = 2s

smoothSolver:  Solving for Ux, Initial residual = 0.992696, Final residual = 0.094977, No Iterations 6
smoothSolver:  Solving for Uy, Initial residual = 1, Final residual = 0.0782457, No Iterations 5
Pressure gradient source: uncorrected Ubar = 58.8148, pressure gradient = -981.617
GAMG:  Solving for p, Initial residual = 1, Final residual = 0.0995752, No Iterations 15
time step continuity errors : sum local = 0.0521887, global = 2.64003e-17, cumulative = 3.04362e-17
Pressure gradient source: uncorrected Ubar = 8.52823, pressure gradient = -12.8211
smoothSolver:  Solving for omega, Initial residual = 0.171279, Final residual = 0.00224729, No Iterations 1
smoothSolver:  Solving for k, Initial residual = 0.901951, Final residual = 0.0519008, No Iterations 2
ExecutionTime = 0.017224 s  ClockTime = 0 s

Time = 3s

smoothSolver:  Solving for Ux, Initial residual = 0.390595, Final residual = 0.0316094, No Iterations 6
smoothSolver:  Solving for Uy, Initial residual = 0.634027, Final residual = 0.0276251, No Iterations 2
Pressure gradient source: uncorrected Ubar = -1.7264, pressure gradient = 98.1948
GAMG:  Solving for p, Initial residual = 0.208083, Final residual = 0.0207957, No Iterations 8
time step continuity errors : sum local = 0.0248774, global = -3.87602e-18, cumulative = 2.65602e-17
Pressure gradient source: uncorrected Ubar = 0.629821, pressure gradient = 2.25224
smoothSolver:  Solving for omega, Initial residual = 0.0182855, Final residual = 0.00153894, No Iterations 1
smoothSolver:  Solving for k, Initial residual = 0.531798, Final residual = 0.0387348, No Iterations 2
ExecutionTime = 0.019945 s  ClockTime = 0 s

Time = 4s

smoothSolver:  Solving for Ux, Initial residual = 0.130585, Final residual = 0.0124103, No Iterations 4
smoothSolver:  Solving for Uy, Initial residual = 0.398065, Final residual = 0.0327149, No Iterations 2
Pressure gradient source: uncorrected Ubar = 1.35063, pressure gradient = -7.40307
GAMG:  Solving for p, Initial residual = 0.150276, Final residual = 0.0142977, No Iterations 10
time step continuity errors : sum local = 0.0376121, global = 3.44912e-17, cumulative = 6.10514e-17
Pressure gradient source: uncorrected Ubar = 1.04959, pressure gradient = 0.886798
smoothSolver:  Solving for omega, Initial residual = 0.0120651, Final residual = 0.000424724, No Iterations 2
smoothSolver:  Solving for k, Initial residual = 0.681132, Final residual = 0.0312361, No Iterations 2
ExecutionTime = 0.022661 s  ClockTime = 0 s

Time = 5s

smoothSolver:  Solving for Ux, Initial residual = 0.121793, Final residual = 0.00819607, No Iterations 4
smoothSolver:  Solving for Uy, Initial residual = 0.406316, Final residual = 0.0359847, No Iterations 2
Pressure gradient source: uncorrected Ubar = 0.95561, pressure gradient = 2.2413
GAMG:  Solving for p, Initial residual = 0.236912, Final residual = 0.0221449, No Iterations 9
time step continuity errors : sum local = 0.0532302, global = -9.49897e-17, cumulative = -3.39383e-17
Pressure gradient source: uncorrected Ubar = 0.994215, pressure gradient = 1.06333
smoothSolver:  Solving for omega, Initial residual = 0.024736, Final residual = 0.00140379, No Iterations 2
smoothSolver:  Solving for k, Initial residual = 0.724188, Final residual = 0.00990707, No Iterations 2
ExecutionTime = 0.0254 s  ClockTime = 0 s

Time = 6s

smoothSolver:  Solving for Ux, Initial residual = 0.121473, Final residual = 0.00957881, No Iterations 3
smoothSolver:  Solving for Uy, Initial residual = 0.490596, Final residual = 0.0463379, No Iterations 2
Pressure gradient source: uncorrected Ubar = 0.942918, pressure gradient = 3.03312
GAMG:  Solving for p, Initial residual = 0.494541, Final residual = 0.0435386, No Iterations 13
time step continuity errors : sum local = 0.0726811, global = -4.7488e-17, cumulative = -8.14263e-17
Pressure gradient source: uncorrected Ubar = 0.995681, pressure gradient = 1.21237
smoothSolver:  Solving for omega, Initial residual = 0.0592045, Final residual = 0.0012504, No Iterations 2
bounding omega, min: -1.79281 max: 7181.22 average: 163.221
smoothSolver:  Solving for k, Initial residual = 0.434544, Final residual = 0.00375733, No Iterations 2
ExecutionTime = 0.028414 s  ClockTime = 0 s

Time = 7s

smoothSolver:  Solving for Ux, Initial residual = 0.0923416, Final residual = 0.00664143, No Iterations 3
smoothSolver:  Solving for Uy, Initial residual = 0.506035, Final residual = 0.0211396, No Iterations 3
Pressure gradient source: uncorrected Ubar = 0.868891, pressure gradient = 6.85223
GAMG:  Solving for p, Initial residual = 0.500244, Final residual = 0.0287633, No Iterations 9
time step continuity errors : sum local = 0.0761658, global = -7.00361e-17, cumulative = -1.51462e-16
Pressure gradient source: uncorrected Ubar = 0.985835, pressure gradient = 1.82172
smoothSolver:  Solving for omega, Initial residual = 0.0817239, Final residual = 0.0075604, No Iterations 1
smoothSolver:  Solving for k, Initial residual = 0.240511, Final residual = 0.00514239, No Iterations 2
ExecutionTime = 0.0312 s  ClockTime = 0 s

Time = 8s

smoothSolver:  Solving for Ux, Initial residual = 0.0971949, Final residual = 0.00798666, No Iterations 3
smoothSolver:  Solving for Uy, Initial residual = 0.441217, Final residual = 0.0427417, No Iterations 2
Pressure gradient source: uncorrected Ubar = 0.971361, pressure gradient = 3.32667
GAMG:  Solving for p, Initial residual = 0.366413, Final residual = 0.0348292, No Iterations 11
time step continuity errors : sum local = 0.135582, global = -2.38524e-18, cumulative = -1.53848e-16
Pressure gradient source: uncorrected Ubar = 0.992009, pressure gradient = 2.24162
smoothSolver:  Solving for omega, Initial residual = 0.0581159, Final residual = 0.00152992, No Iterations 2
smoothSolver:  Solving for k, Initial residual = 0.213971, Final residual = 0.00943043, No Iterations 2
ExecutionTime = 0.034029 s  ClockTime = 0 s

Time = 9s

smoothSolver:  Solving for Ux, Initial residual = 0.0649462, Final residual = 0.0059484, No Iterations 3
smoothSolver:  Solving for Uy, Initial residual = 0.378832, Final residual = 0.0186033, No Iterations 3
Pressure gradient source: uncorrected Ubar = 0.932916, pressure gradient = 6.0512
GAMG:  Solving for p, Initial residual = 0.244999, Final residual = 0.0232111, No Iterations 8
time step continuity errors : sum local = 0.15204, global = 5.59448e-17, cumulative = -9.79028e-17
Pressure gradient source: uncorrected Ubar = 0.982619, pressure gradient = 3.22866
smoothSolver:  Solving for omega, Initial residual = 0.0350272, Final residual = 0.000910341, No Iterations 2
smoothSolver:  Solving for k, Initial residual = 0.190373, Final residual = 0.00827694, No Iterations 3
ExecutionTime = 0.036714 s  ClockTime = 0 s

Time = 10s

smoothSolver:  Solving for Ux, Initial residual = 0.0460292, Final residual = 0.00323488, No Iterations 4
smoothSolver:  Solving for Uy, Initial residual = 0.383648, Final residual = 0.0204695, No Iterations 3
Pressure gradient source: uncorrected Ubar = 0.917299, pressure gradient = 8.71722
GAMG:  Solving for p, Initial residual = 0.267849, Final residual = 0.0201863, No Iterations 9
time step continuity errors : sum local = 0.111653, global = 8.13152e-18, cumulative = -8.97713e-17
Pressure gradient source: uncorrected Ubar = 0.984562, pressure gradient = 4.25323
smoothSolver:  Solving for omega, Initial residual = 0.0326976, Final residual = 0.00198778, No Iterations 2
smoothSolver:  Solving for k, Initial residual = 0.132477, Final residual = 0.00893238, No Iterations 3
ExecutionTime = 0.039434 s  ClockTime = 0 s

Time = 11s

smoothSolver:  Solving for Ux, Initial residual = 0.0346892, Final residual = 0.0027364, No Iterations 4
smoothSolver:  Solving for Uy, Initial residual = 0.515039, Final residual = 0.0254474, No Iterations 3
Pressure gradient source: uncorrected Ubar = 0.990706, pressure gradient = 4.93767
GAMG:  Solving for p, Initial residual = 0.307627, Final residual = 0.0297093, No Iterations 6
time step continuity errors : sum local = 0.104274, global = 2.88398e-17, cumulative = -6.09315e-17
Pressure gradient source: uncorrected Ubar = 1.00704, pressure gradient = 3.73493
smoothSolver:  Solving for omega, Initial residual = 0.0351046, Final residual = 0.00279046, No Iterations 2
smoothSolver:  Solving for k, Initial residual = 0.101376, Final residual = 0.00861684, No Iterations 3
ExecutionTime = 0.041997 s  ClockTime = 0 s

Time = 12s

smoothSolver:  Solving for Ux, Initial residual = 0.0266421, Final residual = 0.00221166, No Iterations 4
smoothSolver:  Solving for Uy, Initial residual = 0.584102, Final residual = 0.0345665, No Iterations 3
Pressure gradient source: uncorrected Ubar = 0.943744, pressure gradient = 8.47969
GAMG:  Solving for p, Initial residual = 0.424747, Final residual = 0.0337107, No Iterations 8
time step continuity errors : sum local = 0.0921282, global = 3.33392e-17, cumulative = -2.75923e-17
Pressure gradient source: uncorrected Ubar = 1.0003, pressure gradient = 3.70956
smoothSolver:  Solving for omega, Initial residual = 0.0273661, Final residual = 0.00267657, No Iterations 2
smoothSolver:  Solving for k, Initial residual = 0.0794228, Final residual = 0.00427401, No Iterations 4
ExecutionTime = 0.044703 s  ClockTime = 0 s

Time = 13s

smoothSolver:  Solving for Ux, Initial residual = 0.0224064, Final residual = 0.00188647, No Iterations 4
smoothSolver:  Solving for Uy, Initial residual = 0.405725, Final residual = 0.025641, No Iterations 3
Pressure gradient source: uncorrected Ubar = 0.955653, pressure gradient = 7.92974
GAMG:  Solving for p, Initial residual = 0.288351, Final residual = 0.0255023, No Iterations 11
time step continuity errors : sum local = 0.0786332, global = 3.49113e-17, cumulative = 7.319e-18
Pressure gradient source: uncorrected Ubar = 0.993711, pressure gradient = 4.30806
smoothSolver:  Solving for omega, Initial residual = 0.0275199, Final residual = 0.00140221, No Iterations 3
smoothSolver:  Solving for k, Initial residual = 0.0674544, Final residual = 0.00474974, No Iterations 4
ExecutionTime = 0.047515 s  ClockTime = 0 s

Time = 14s

smoothSolver:  Solving for Ux, Initial residual = 0.0194779, Final residual = 0.00171022, No Iterations 4
smoothSolver:  Solving for Uy, Initial residual = 0.345719, Final residual = 0.0262559, No Iterations 3
Pressure gradient source: uncorrected Ubar = 0.997891, pressure gradient = 4.5285
GAMG:  Solving for p, Initial residual = 0.198565, Final residual = 0.0195844, No Iterations 10
time step continuity errors : sum local = 0.106076, global = -3.2648e-17, cumulative = -2.5329e-17
Pressure gradient source: uncorrected Ubar = 0.999846, pressure gradient = 4.32419
smoothSolver:  Solving for omega, Initial residual = 0.0209867, Final residual = 0.00137354, No Iterations 3
smoothSolver:  Solving for k, Initial residual = 0.0619578, Final residual = 0.00454064, No Iterations 4
ExecutionTime = 0.050282 s  ClockTime = 0 s

Time = 15s

smoothSolver:  Solving for Ux, Initial residual = 0.017357, Final residual = 0.00157016, No Iterations 4
smoothSolver:  Solving for Uy, Initial residual = 0.338228, Final residual = 0.0215545, No Iterations 3
Pressure gradient source: uncorrected Ubar = 0.989617, pressure gradient = 5.60653
GAMG:  Solving for p, Initial residual = 0.200089, Final residual = 0.0166213, No Iterations 8
time step continuity errors : sum local = 0.107741, global = -1.77375e-16, cumulative = -2.02705e-16
Pressure gradient source: uncorrected Ubar = 0.994611, pressure gradient = 4.98968
smoothSolver:  Solving for omega, Initial residual = 0.0186846, Final residual = 0.00140833, No Iterations 3
smoothSolver:  Solving for k, Initial residual = 0.0559252, Final residual = 0.00463062, No Iterations 4
ExecutionTime = 0.052994 s  ClockTime = 0 s

Time = 16s

smoothSolver:  Solving for Ux, Initial residual = 0.0154975, Final residual = 0.00151057, No Iterations 4
smoothSolver:  Solving for Uy, Initial residual = 0.232627, Final residual = 0.0172941, No Iterations 3
Pressure gradient source: uncorrected Ubar = 1.01655, pressure gradient = 2.7124
GAMG:  Solving for p, Initial residual = 0.256441, Final residual = 0.0218738, No Iterations 8
time step continuity errors : sum local = 0.099855, global = 1.53957e-17, cumulative = -1.87309e-16
Pressure gradient source: uncorrected Ubar = 0.996765, pressure gradient = 5.43493
smoothSolver:  Solving for omega, Initial residual = 0.017437, Final residual = 0.00140654, No Iterations 3
smoothSolver:  Solving for k, Initial residual = 0.0537245, Final residual = 0.00320709, No Iterations 5
ExecutionTime = 0.055697 s  ClockTime = 0 s

Time = 17s

smoothSolver:  Solving for Ux, Initial residual = 0.0140313, Final residual = 0.000936173, No Iterations 5
smoothSolver:  Solving for Uy, Initial residual = 0.254952, Final residual = 0.0177471, No Iterations 3
Pressure gradient source: uncorrected Ubar = 1.03535, pressure gradient = 0.133008
GAMG:  Solving for p, Initial residual = 0.243958, Final residual = 0.0212866, No Iterations 10
time step continuity errors : sum local = 0.0723063, global = -1.35796e-17, cumulative = -2.00888e-16
Pressure gradient source: uncorrected Ubar = 1.00232, pressure gradient = 5.08641
smoothSolver:  Solving for omega, Initial residual = 0.0155553, Final residual = 0.000910482, No Iterations 4
smoothSolver:  Solving for k, Initial residual = 0.0481568, Final residual = 0.00320944, No Iterations 5
ExecutionTime = 0.058503 s  ClockTime = 0 s

Time = 18s

smoothSolver:  Solving for Ux, Initial residual = 0.0124611, Final residual = 0.000885591, No Iterations 5
smoothSolver:  Solving for Uy, Initial residual = 0.229904, Final residual = 0.0184644, No Iterations 3
Pressure gradient source: uncorrected Ubar = 1.01534, pressure gradient = 2.56657
GAMG:  Solving for p, Initial residual = 0.121437, Final residual = 0.0111789, No Iterations 11
time step continuity errors : sum local = 0.0674844, global = -1.57209e-18, cumulative = -2.02461e-16
Pressure gradient source: uncorrected Ubar = 1.00099, pressure gradient = 4.92397
smoothSolver:  Solving for omega, Initial residual = 0.0140507, Final residual = 0.000964866, No Iterations 4
smoothSolver:  Solving for k, Initial residual = 0.0438956, Final residual = 0.00316311, No Iterations 5
ExecutionTime = 0.06136 s  ClockTime = 0 s

Time = 19s

smoothSolver:  Solving for Ux, Initial residual = 0.0115732, Final residual = 0.000851946, No Iterations 5
smoothSolver:  Solving for Uy, Initial residual = 0.17945, Final residual = 0.00927548, No Iterations 4
Pressure gradient source: uncorrected Ubar = 1.00219, pressure gradient = 4.52738
GAMG:  Solving for p, Initial residual = 0.0585717, Final residual = 0.00547302, No Iterations 10
time step continuity errors : sum local = 0.0682626, global = 4.12336e-18, cumulative = -1.98337e-16
Pressure gradient source: uncorrected Ubar = 1.00024, pressure gradient = 4.87981
smoothSolver:  Solving for omega, Initial residual = 0.0120255, Final residual = 0.00101061, No Iterations 4
smoothSolver:  Solving for k, Initial residual = 0.0409229, Final residual = 0.00321005, No Iterations 5
ExecutionTime = 0.064173 s  ClockTime = 0 s

Time = 20s

smoothSolver:  Solving for Ux, Initial residual = 0.0109822, Final residual = 0.000829718, No Iterations 5
smoothSolver:  Solving for Uy, Initial residual = 0.180768, Final residual = 0.00954822, No Iterations 4
Pressure gradient source: uncorrected Ubar = 1.00159, pressure gradient = 4.56899
GAMG:  Solving for p, Initial residual = 0.0386524, Final residual = 0.00309638, No Iterations 11
time step continuity errors : sum local = 0.054728, global = 4.40254e-17, cumulative = -1.54312e-16
Pressure gradient source: uncorrected Ubar = 1.00114, pressure gradient = 4.65747
smoothSolver:  Solving for omega, Initial residual = 0.0115653, Final residual = 0.00102878, No Iterations 4
smoothSolver:  Solving for k, Initial residual = 0.0383811, Final residual = 0.00327061, No Iterations 5
ExecutionTime = 0.067057 s  ClockTime = 0 s

Time = 21s

smoothSolver:  Solving for Ux, Initial residual = 0.0104612, Final residual = 0.000806469, No Iterations 5
smoothSolver:  Solving for Uy, Initial residual = 0.174618, Final residual = 0.0103535, No Iterations 4
Pressure gradient source: uncorrected Ubar = 0.999576, pressure gradient = 4.74542
GAMG:  Solving for p, Initial residual = 0.0263683, Final residual = 0.00219326, No Iterations 11
time step continuity errors : sum local = 0.0488618, global = -9.62772e-17, cumulative = -2.50589e-16
Pressure gradient source: uncorrected Ubar = 1.00039, pressure gradient = 4.57652
smoothSolver:  Solving for omega, Initial residual = 0.0111584, Final residual = 0.00107221, No Iterations 4
smoothSolver:  Solving for k, Initial residual = 0.0350826, Final residual = 0.003139, No Iterations 5
ExecutionTime = 0.069917 s  ClockTime = 0 s

Time = 22s

smoothSolver:  Solving for Ux, Initial residual = 0.0100402, Final residual = 0.000788094, No Iterations 5
smoothSolver:  Solving for Uy, Initial residual = 0.153596, Final residual = 0.0109238, No Iterations 4
Pressure gradient source: uncorrected Ubar = 1.00337, pressure gradient = 3.83785
GAMG:  Solving for p, Initial residual = 0.0194512, Final residual = 0.00191179, No Iterations 9
time step continuity errors : sum local = 0.0481951, global = 2.86229e-17, cumulative = -2.21966e-16
Pressure gradient source: uncorrected Ubar = 1.00098, pressure gradient = 4.3614
smoothSolver:  Solving for omega, Initial residual = 0.010433, Final residual = 0.000667634, No Iterations 5
smoothSolver:  Solving for k, Initial residual = 0.0322837, Final residual = 0.00301663, No Iterations 5
ExecutionTime = 0.072706 s  ClockTime = 0 s

Time = 23s

smoothSolver:  Solving for Ux, Initial residual = 0.00965964, Final residual = 0.00076727, No Iterations 5
smoothSolver:  Solving for Uy, Initial residual = 0.143436, Final residual = 0.0101657, No Iterations 4
Pressure gradient source: uncorrected Ubar = 1.00149, pressure gradient = 4.01603
GAMG:  Solving for p, Initial residual = 0.0145158, Final residual = 0.00143915, No Iterations 9
time step continuity errors : sum local = 0.0377843, global = -7.15573e-18, cumulative = -2.29122e-16
Pressure gradient source: uncorrected Ubar = 1.00061, pressure gradient = 4.22005
smoothSolver:  Solving for omega, Initial residual = 0.0101001, Final residual = 0.000663732, No Iterations 5
smoothSolver:  Solving for k, Initial residual = 0.0298859, Final residual = 0.00291116, No Iterations 5
ExecutionTime = 0.075492 s  ClockTime = 0 s

Time = 24s

smoothSolver:  Solving for Ux, Initial residual = 0.00934586, Final residual = 0.0007505, No Iterations 5
smoothSolver:  Solving for Uy, Initial residual = 0.135178, Final residual = 0.0100094, No Iterations 4
Pressure gradient source: uncorrected Ubar = 1.00416, pressure gradient = 3.20573
GAMG:  Solving for p, Initial residual = 0.0101672, Final residual = 0.000787314, No Iterations 11
time step continuity errors : sum local = 0.0215984, global = -4.12014e-17, cumulative = -2.70323e-16
Pressure gradient source: uncorrected Ubar = 1.0007, pressure gradient = 4.05048
smoothSolver:  Solving for omega, Initial residual = 0.00924347, Final residual = 0.000658434, No Iterations 5
smoothSolver:  Solving for k, Initial residual = 0.0277849, Final residual = 0.00178368, No Iterations 6
ExecutionTime = 0.078428 s  ClockTime = 0 s

Time = 25s

smoothSolver:  Solving for Ux, Initial residual = 0.00905562, Final residual = 0.000733691, No Iterations 5
smoothSolver:  Solving for Uy, Initial residual = 0.119596, Final residual = 0.0100856, No Iterations 4
Pressure gradient source: uncorrected Ubar = 1.0067, pressure gradient = 2.32979
GAMG:  Solving for p, Initial residual = 0.00859922, Final residual = 0.000821752, No Iterations 9
time step continuity errors : sum local = 0.0208832, global = -5.50775e-17, cumulative = -3.25401e-16
Pressure gradient source: uncorrected Ubar = 1.00092, pressure gradient = 3.81379
smoothSolver:  Solving for omega, Initial residual = 0.00847836, Final residual = 0.000661196, No Iterations 5
smoothSolver:  Solving for k, Initial residual = 0.0258973, Final residual = 0.00172785, No Iterations 6
ExecutionTime = 0.081216 s  ClockTime = 0 s

Time = 26s

smoothSolver:  Solving for Ux, Initial residual = 0.00876528, Final residual = 0.000715626, No Iterations 5
smoothSolver:  Solving for Uy, Initial residual = 0.0948148, Final residual = 0.00937408, No Iterations 4
Pressure gradient source: uncorrected Ubar = 1.00424, pressure gradient = 2.66963
GAMG:  Solving for p, Initial residual = 0.00761867, Final residual = 0.000663335, No Iterations 9
time step continuity errors : sum local = 0.014635, global = -2.8135e-17, cumulative = -3.53536e-16
Pressure gradient source: uncorrected Ubar = 1.00053, pressure gradient = 3.67182
smoothSolver:  Solving for omega, Initial residual = 0.00794392, Final residual = 0.000620403, No Iterations 5
smoothSolver:  Solving for k, Initial residual = 0.0240959, Final residual = 0.00166065, No Iterations 6
ExecutionTime = 0.084141 s  ClockTime = 0 s

Time = 27s

smoothSolver:  Solving for Ux, Initial residual = 0.00850606, Final residual = 0.000699272, No Iterations 5
smoothSolver:  Solving for Uy, Initial residual = 0.0913672, Final residual = 0.00875229, No Iterations 4
Pressure gradient source: uncorrected Ubar = 1.0047, pressure gradient = 2.33636
GAMG:  Solving for p, Initial residual = 0.00650127, Final residual = 0.000577893, No Iterations 6
time step continuity errors : sum local = 0.0109199, global = -1.61058e-16, cumulative = -5.14594e-16
Pressure gradient source: uncorrected Ubar = 1.00052, pressure gradient = 3.52504
smoothSolver:  Solving for omega, Initial residual = 0.00729414, Final residual = 0.000622626, No Iterations 5
smoothSolver:  Solving for k, Initial residual = 0.0224007, Final residual = 0.00158444, No Iterations 6
ExecutionTime = 0.086784 s  ClockTime = 0 s

Time = 28s

smoothSolver:  Solving for Ux, Initial residual = 0.00826479, Final residual = 0.0006837, No Iterations 5
smoothSolver:  Solving for Uy, Initial residual = 0.0866084, Final residual = 0.00819836, No Iterations 4
Pressure gradient source: uncorrected Ubar = 1.0036, pressure gradient = 2.45026
GAMG:  Solving for p, Initial residual = 0.00570191, Final residual = 0.00011145, No Iterations 6
time step continuity errors : sum local = 0.00213609, global = -3.42608e-17, cumulative = -5.48855e-16
Pressure gradient source: uncorrected Ubar = 1.00036, pressure gradient = 3.41807
smoothSolver:  Solving for omega, Initial residual = 0.00683513, Final residual = 0.000585684, No Iterations 5
smoothSolver:  Solving for k, Initial residual = 0.0207747, Final residual = 0.00149831, No Iterations 6
ExecutionTime = 0.089491 s  ClockTime = 0 s

Time = 29s

smoothSolver:  Solving for Ux, Initial residual = 0.00803978, Final residual = 0.000668518, No Iterations 5
smoothSolver:  Solving for Uy, Initial residual = 0.079677, Final residual = 0.00760308, No Iterations 4
Pressure gradient source: uncorrected Ubar = 1.00349, pressure gradient = 2.32262
GAMG:  Solving for p, Initial residual = 0.00501289, Final residual = 0.000342808, No Iterations 6
time step continuity errors : sum local = 0.00566763, global = -6.71121e-17, cumulative = -6.15967e-16
Pressure gradient source: uncorrected Ubar = 1.00033, pressure gradient = 3.31517
smoothSolver:  Solving for omega, Initial residual = 0.00649518, Final residual = 0.000563719, No Iterations 5
smoothSolver:  Solving for k, Initial residual = 0.0193698, Final residual = 0.00142686, No Iterations 6
ExecutionTime = 0.092275 s  ClockTime = 0 s

Time = 30s

smoothSolver:  Solving for Ux, Initial residual = 0.00782807, Final residual = 0.000651812, No Iterations 5
smoothSolver:  Solving for Uy, Initial residual = 0.065371, Final residual = 0.00392293, No Iterations 5
Pressure gradient source: uncorrected Ubar = 1.00204, pressure gradient = 2.63786
GAMG:  Solving for p, Initial residual = 0.00469979, Final residual = 0.000384902, No Iterations 6
time step continuity errors : sum local = 0.00603406, global = -3.03577e-17, cumulative = -6.46324e-16
Pressure gradient source: uncorrected Ubar = 1.00015, pressure gradient = 3.2663
smoothSolver:  Solving for omega, Initial residual = 0.00586397, Final residual = 0.000542332, No Iterations 5
smoothSolver:  Solving for k, Initial residual = 0.0177533, Final residual = 0.00130773, No Iterations 6
ExecutionTime = 0.094931 s  ClockTime = 0 s

Time = 31s

smoothSolver:  Solving for Ux, Initial residual = 0.0076027, Final residual = 0.000628843, No Iterations 5
smoothSolver:  Solving for Uy, Initial residual = 0.0547206, Final residual = 0.00362755, No Iterations 5
Pressure gradient source: uncorrected Ubar = 1.00128, pressure gradient = 2.81904
GAMG:  Solving for p, Initial residual = 0.00436981, Final residual = 0.000403019, No Iterations 8
time step continuity errors : sum local = 0.00587576, global = -1.48644e-16, cumulative = -7.94969e-16
Pressure gradient source: uncorrected Ubar = 1.00006, pressure gradient = 3.247
smoothSolver:  Solving for omega, Initial residual = 0.00561132, Final residual = 0.000527673, No Iterations 5
smoothSolver:  Solving for k, Initial residual = 0.0161989, Final residual = 0.00121032, No Iterations 6
ExecutionTime = 0.097697 s  ClockTime = 0 s

Time = 32s

smoothSolver:  Solving for Ux, Initial residual = 0.0073224, Final residual = 0.000604366, No Iterations 5
smoothSolver:  Solving for Uy, Initial residual = 0.046189, Final residual = 0.00335366, No Iterations 5
Pressure gradient source: uncorrected Ubar = 1.00085, pressure gradient = 2.93694
GAMG:  Solving for p, Initial residual = 0.00389471, Final residual = 0.0003789, No Iterations 10
time step continuity errors : sum local = 0.00495001, global = 4.98733e-17, cumulative = -7.45095e-16
Pressure gradient source: uncorrected Ubar = 1, pressure gradient = 3.24694
smoothSolver:  Solving for omega, Initial residual = 0.00518377, Final residual = 0.000502862, No Iterations 5
smoothSolver:  Solving for k, Initial residual = 0.0145765, Final residual = 0.00109322, No Iterations 6
ExecutionTime = 0.100764 s  ClockTime = 0 s

Time = 33s

smoothSolver:  Solving for Ux, Initial residual = 0.00704416, Final residual = 0.000581581, No Iterations 5
smoothSolver:  Solving for Uy, Initial residual = 0.0385117, Final residual = 0.0030087, No Iterations 5
Pressure gradient source: uncorrected Ubar = 1.00039, pressure gradient = 3.09572
GAMG:  Solving for p, Initial residual = 0.00339252, Final residual = 0.000324687, No Iterations 18
time step continuity errors : sum local = 0.00362987, global = -1.02999e-17, cumulative = -7.55395e-16
Pressure gradient source: uncorrected Ubar = 0.999957, pressure gradient = 3.26363
smoothSolver:  Solving for omega, Initial residual = 0.00492339, Final residual = 0.000327478, No Iterations 6
smoothSolver:  Solving for k, Initial residual = 0.0132368, Final residual = 0.00100203, No Iterations 6
ExecutionTime = 0.104027 s  ClockTime = 0 s

Time = 34s

smoothSolver:  Solving for Ux, Initial residual = 0.0067924, Final residual = 0.000560556, No Iterations 5
smoothSolver:  Solving for Uy, Initial residual = 0.0333778, Final residual = 0.00278589, No Iterations 5
Pressure gradient source: uncorrected Ubar = 1.00005, pressure gradient = 3.24417
GAMG:  Solving for p, Initial residual = 0.00315725, Final residual = 0.000285021, No Iterations 22
time step continuity errors : sum local = 0.00267503, global = 1.52874e-17, cumulative = -7.40108e-16
Pressure gradient source: uncorrected Ubar = 0.99992, pressure gradient = 3.29554
smoothSolver:  Solving for omega, Initial residual = 0.00449377, Final residual = 0.000301377, No Iterations 6
smoothSolver:  Solving for k, Initial residual = 0.0119905, Final residual = 0.000912608, No Iterations 6
ExecutionTime = 0.107468 s  ClockTime = 0 s

Time = 35s

smoothSolver:  Solving for Ux, Initial residual = 0.0065626, Final residual = 0.000540811, No Iterations 5
smoothSolver:  Solving for Uy, Initial residual = 0.029475, Final residual = 0.00269473, No Iterations 5
Pressure gradient source: uncorrected Ubar = 1.00004, pressure gradient = 3.27699
GAMG:  Solving for p, Initial residual = 0.00292586, Final residual = 0.000261035, No Iterations 24
time step continuity errors : sum local = 0.00204564, global = -3.36103e-17, cumulative = -7.73718e-16
Pressure gradient source: uncorrected Ubar = 0.999913, pressure gradient = 3.33166
smoothSolver:  Solving for omega, Initial residual = 0.00426841, Final residual = 0.000294448, No Iterations 6
smoothSolver:  Solving for k, Initial residual = 0.0109624, Final residual = 0.000840519, No Iterations 6
ExecutionTime = 0.110975 s  ClockTime = 0 s

Time = 36s

smoothSolver:  Solving for Ux, Initial residual = 0.00635228, Final residual = 0.000523227, No Iterations 5
smoothSolver:  Solving for Uy, Initial residual = 0.0270339, Final residual = 0.00269106, No Iterations 5
Pressure gradient source: uncorrected Ubar = 0.999923, pressure gradient = 3.36531
GAMG:  Solving for p, Initial residual = 0.00288226, Final residual = 0.000268189, No Iterations 20
time step continuity errors : sum local = 0.00175756, global = -5.09575e-18, cumulative = -7.78814e-16
Pressure gradient source: uncorrected Ubar = 0.999891, pressure gradient = 3.37917
smoothSolver:  Solving for omega, Initial residual = 0.00401, Final residual = 0.00027719, No Iterations 6
smoothSolver:  Solving for k, Initial residual = 0.00998575, Final residual = 0.000768799, No Iterations 6
ExecutionTime = 0.11432 s  ClockTime = 0 s

Time = 37s

smoothSolver:  Solving for Ux, Initial residual = 0.00616312, Final residual = 0.000507861, No Iterations 5
smoothSolver:  Solving for Uy, Initial residual = 0.0264403, Final residual = 0.00178917, No Iterations 6
Pressure gradient source: uncorrected Ubar = 1.0001, pressure gradient = 3.33447
GAMG:  Solving for p, Initial residual = 0.0028327, Final residual = 0.00026447, No Iterations 13
time step continuity errors : sum local = 0.00156843, global = -2.60211e-18, cumulative = -7.81416e-16
Pressure gradient source: uncorrected Ubar = 0.999921, pressure gradient = 3.41513
smoothSolver:  Solving for omega, Initial residual = 0.00382812, Final residual = 0.000275528, No Iterations 6
smoothSolver:  Solving for k, Initial residual = 0.00915534, Final residual = 0.000704396, No Iterations 6
ExecutionTime = 0.117366 s  ClockTime = 0 s

Time = 38s

smoothSolver:  Solving for Ux, Initial residual = 0.0059893, Final residual = 0.000494391, No Iterations 5
smoothSolver:  Solving for Uy, Initial residual = 0.0267803, Final residual = 0.00183188, No Iterations 6
Pressure gradient source: uncorrected Ubar = 1.00019, pressure gradient = 3.32599
GAMG:  Solving for p, Initial residual = 0.00260319, Final residual = 0.000258, No Iterations 21
time step continuity errors : sum local = 0.00128299, global = 5.04154e-18, cumulative = -7.76374e-16
Pressure gradient source: uncorrected Ubar = 0.999931, pressure gradient = 3.44787
smoothSolver:  Solving for omega, Initial residual = 0.00362859, Final residual = 0.000257565, No Iterations 6
smoothSolver:  Solving for k, Initial residual = 0.00849002, Final residual = 0.000648748, No Iterations 6
ExecutionTime = 0.120864 s  ClockTime = 0 s

Time = 39s

smoothSolver:  Solving for Ux, Initial residual = 0.00583091, Final residual = 0.000482269, No Iterations 5
smoothSolver:  Solving for Uy, Initial residual = 0.0276898, Final residual = 0.00190533, No Iterations 6
Pressure gradient source: uncorrected Ubar = 0.999962, pressure gradient = 3.46674
GAMG:  Solving for p, Initial residual = 0.00232613, Final residual = 0.000216773, No Iterations 21
time step continuity errors : sum local = 0.000983153, global = 3.30682e-18, cumulative = -7.73068e-16
Pressure gradient source: uncorrected Ubar = 0.999899, pressure gradient = 3.49796
smoothSolver:  Solving for omega, Initial residual = 0.0034474, Final residual = 0.000244578, No Iterations 6
smoothSolver:  Solving for k, Initial residual = 0.00800155, Final residual = 0.000605449, No Iterations 6
ExecutionTime = 0.124274 s  ClockTime = 0 s

Time = 40s

smoothSolver:  Solving for Ux, Initial residual = 0.00568054, Final residual = 0.000470702, No Iterations 5
smoothSolver:  Solving for Uy, Initial residual = 0.0285122, Final residual = 0.00197082, No Iterations 6
Pressure gradient source: uncorrected Ubar = 0.999906, pressure gradient = 3.54682
GAMG:  Solving for p, Initial residual = 0.00211359, Final residual = 0.000208342, No Iterations 13
time step continuity errors : sum local = 0.000869188, global = -9.05309e-18, cumulative = -7.82121e-16
Pressure gradient source: uncorrected Ubar = 0.999894, pressure gradient = 3.55345
smoothSolver:  Solving for omega, Initial residual = 0.00332068, Final residual = 0.000241026, No Iterations 6
smoothSolver:  Solving for k, Initial residual = 0.00756851, Final residual = 0.000557951, No Iterations 6
ExecutionTime = 0.127274 s  ClockTime = 0 s

Time = 41s

smoothSolver:  Solving for Ux, Initial residual = 0.00554652, Final residual = 0.000460875, No Iterations 5
smoothSolver:  Solving for Uy, Initial residual = 0.0294136, Final residual = 0.00203726, No Iterations 6
Pressure gradient source: uncorrected Ubar = 1.00017, pressure gradient = 3.46165
GAMG:  Solving for p, Initial residual = 0.0019212, Final residual = 0.000175148, No Iterations 15
time step continuity errors : sum local = 0.000675969, global = -3.78115e-17, cumulative = -8.19932e-16
Pressure gradient source: uncorrected Ubar = 0.999932, pressure gradient = 3.59049
smoothSolver:  Solving for omega, Initial residual = 0.00315075, Final residual = 0.000228279, No Iterations 6
smoothSolver:  Solving for k, Initial residual = 0.00728966, Final residual = 0.00053554, No Iterations 6
ExecutionTime = 0.130379 s  ClockTime = 0 s

Time = 42s

smoothSolver:  Solving for Ux, Initial residual = 0.00542077, Final residual = 0.000452138, No Iterations 5
smoothSolver:  Solving for Uy, Initial residual = 0.0300741, Final residual = 0.00209621, No Iterations 6
Pressure gradient source: uncorrected Ubar = 1.00008, pressure gradient = 3.54722
GAMG:  Solving for p, Initial residual = 0.00173575, Final residual = 0.000170521, No Iterations 18
time step continuity errors : sum local = 0.000600668, global = -3.86789e-17, cumulative = -8.58611e-16
Pressure gradient source: uncorrected Ubar = 0.999919, pressure gradient = 3.63647
smoothSolver:  Solving for omega, Initial residual = 0.00300529, Final residual = 0.000213733, No Iterations 6
smoothSolver:  Solving for k, Initial residual = 0.00710404, Final residual = 0.000524399, No Iterations 6
ExecutionTime = 0.13362 s  ClockTime = 0 s

Time = 43s

smoothSolver:  Solving for Ux, Initial residual = 0.00530009, Final residual = 0.000443629, No Iterations 5
smoothSolver:  Solving for Uy, Initial residual = 0.0304921, Final residual = 0.00213564, No Iterations 6
Pressure gradient source: uncorrected Ubar = 1.00001, pressure gradient = 3.62866
GAMG:  Solving for p, Initial residual = 0.00166987, Final residual = 0.000158055, No Iterations 20
time step continuity errors : sum local = 0.000520019, global = 3.93029e-18, cumulative = -8.54681e-16
Pressure gradient source: uncorrected Ubar = 0.999912, pressure gradient = 3.68876
smoothSolver:  Solving for omega, Initial residual = 0.00291147, Final residual = 0.000214061, No Iterations 6
smoothSolver:  Solving for k, Initial residual = 0.00698967, Final residual = 0.000520537, No Iterations 6
ExecutionTime = 0.136955 s  ClockTime = 0 s

Time = 44s

smoothSolver:  Solving for Ux, Initial residual = 0.00519002, Final residual = 0.000435856, No Iterations 5
smoothSolver:  Solving for Uy, Initial residual = 0.0303789, Final residual = 0.00213915, No Iterations 6
Pressure gradient source: uncorrected Ubar = 1.00009, pressure gradient = 3.63312
GAMG:  Solving for p, Initial residual = 0.0015939, Final residual = 0.000142231, No Iterations 22
time step continuity errors : sum local = 0.000434594, global = 6.0363e-17, cumulative = -7.94318e-16
Pressure gradient source: uncorrected Ubar = 0.999924, pressure gradient = 3.73548
smoothSolver:  Solving for omega, Initial residual = 0.00276735, Final residual = 0.000198582, No Iterations 6
smoothSolver:  Solving for k, Initial residual = 0.00688214, Final residual = 0.000513003, No Iterations 6
ExecutionTime = 0.14038 s  ClockTime = 0 s

Time = 45s

smoothSolver:  Solving for Ux, Initial residual = 0.00508746, Final residual = 0.000428787, No Iterations 5
smoothSolver:  Solving for Uy, Initial residual = 0.0302202, Final residual = 0.00213594, No Iterations 6
Pressure gradient source: uncorrected Ubar = 1.00011, pressure gradient = 3.66441
GAMG:  Solving for p, Initial residual = 0.00157287, Final residual = 0.000150541, No Iterations 22
time step continuity errors : sum local = 0.000416865, global = -1.00207e-16, cumulative = -8.94525e-16
Pressure gradient source: uncorrected Ubar = 0.999928, pressure gradient = 3.78206
smoothSolver:  Solving for omega, Initial residual = 0.00265093, Final residual = 0.000190952, No Iterations 6
smoothSolver:  Solving for k, Initial residual = 0.00682458, Final residual = 0.000515977, No Iterations 6
ExecutionTime = 0.143831 s  ClockTime = 0 s

Time = 46s

smoothSolver:  Solving for Ux, Initial residual = 0.00498619, Final residual = 0.000421999, No Iterations 5
smoothSolver:  Solving for Uy, Initial residual = 0.029778, Final residual = 0.00211385, No Iterations 6
Pressure gradient source: uncorrected Ubar = 1.00005, pressure gradient = 3.75066
GAMG:  Solving for p, Initial residual = 0.00165005, Final residual = 0.000159605, No Iterations 22
time step continuity errors : sum local = 0.000395393, global = 1.82146e-17, cumulative = -8.76311e-16
Pressure gradient source: uncorrected Ubar = 0.99992, pressure gradient = 3.83598
smoothSolver:  Solving for omega, Initial residual = 0.00256609, Final residual = 0.000188896, No Iterations 6
smoothSolver:  Solving for k, Initial residual = 0.00675358, Final residual = 0.000509526, No Iterations 6
ExecutionTime = 0.14725 s  ClockTime = 0 s

Time = 47s

smoothSolver:  Solving for Ux, Initial residual = 0.0048928, Final residual = 0.000415745, No Iterations 5
smoothSolver:  Solving for Uy, Initial residual = 0.0291796, Final residual = 0.00208225, No Iterations 6
Pressure gradient source: uncorrected Ubar = 1.00013, pressure gradient = 3.7469
GAMG:  Solving for p, Initial residual = 0.00169971, Final residual = 0.000157962, No Iterations 24
time step continuity errors : sum local = 0.000348165, global = -3.89229e-17, cumulative = -9.15234e-16
Pressure gradient source: uncorrected Ubar = 0.999933, pressure gradient = 3.883
smoothSolver:  Solving for omega, Initial residual = 0.00244759, Final residual = 0.000175677, No Iterations 6
smoothSolver:  Solving for k, Initial residual = 0.00670136, Final residual = 0.000508111, No Iterations 6
ExecutionTime = 0.15075 s  ClockTime = 0 s

Time = 48s

smoothSolver:  Solving for Ux, Initial residual = 0.00480661, Final residual = 0.000409831, No Iterations 5
smoothSolver:  Solving for Uy, Initial residual = 0.0284276, Final residual = 0.00203406, No Iterations 6
Pressure gradient source: uncorrected Ubar = 1.00013, pressure gradient = 3.79067
GAMG:  Solving for p, Initial residual = 0.00186106, Final residual = 0.000176343, No Iterations 24
time step continuity errors : sum local = 0.000335572, global = 7.78525e-17, cumulative = -8.37381e-16
Pressure gradient source: uncorrected Ubar = 0.999933, pressure gradient = 3.93137
smoothSolver:  Solving for omega, Initial residual = 0.00234795, Final residual = 0.000170517, No Iterations 6
smoothSolver:  Solving for k, Initial residual = 0.00667194, Final residual = 0.000508882, No Iterations 6
ExecutionTime = 0.154312 s  ClockTime = 0 s

Time = 49s

smoothSolver:  Solving for Ux, Initial residual = 0.00472179, Final residual = 0.000403835, No Iterations 5
smoothSolver:  Solving for Uy, Initial residual = 0.0278396, Final residual = 0.00200345, No Iterations 6
Pressure gradient source: uncorrected Ubar = 1.0001, pressure gradient = 3.85945
GAMG:  Solving for p, Initial residual = 0.00206986, Final residual = 0.000196162, No Iterations 24
time step continuity errors : sum local = 0.000315931, global = -7.26415e-18, cumulative = -8.44645e-16
Pressure gradient source: uncorrected Ubar = 0.999929, pressure gradient = 3.98468
smoothSolver:  Solving for omega, Initial residual = 0.00226407, Final residual = 0.000163024, No Iterations 6
smoothSolver:  Solving for k, Initial residual = 0.00664078, Final residual = 0.000508415, No Iterations 6
ExecutionTime = 0.15783 s  ClockTime = 0 s

Time = 50s

smoothSolver:  Solving for Ux, Initial residual = 0.00464174, Final residual = 0.000398552, No Iterations 5
smoothSolver:  Solving for Uy, Initial residual = 0.0271467, Final residual = 0.00196294, No Iterations 6
Pressure gradient source: uncorrected Ubar = 1.00013, pressure gradient = 3.88006
GAMG:  Solving for p, Initial residual = 0.00225231, Final residual = 0.000219127, No Iterations 24
time step continuity errors : sum local = 0.000292255, global = -7.92281e-17, cumulative = -9.23873e-16
Pressure gradient source: uncorrected Ubar = 0.999936, pressure gradient = 4.03502
smoothSolver:  Solving for omega, Initial residual = 0.00217846, Final residual = 0.000159402, No Iterations 6
smoothSolver:  Solving for k, Initial residual = 0.00659386, Final residual = 0.000504852, No Iterations 6
ExecutionTime = 0.161481 s  ClockTime = 0 s

Time = 51s

smoothSolver:  Solving for Ux, Initial residual = 0.00456537, Final residual = 0.000393517, No Iterations 5
smoothSolver:  Solving for Uy, Initial residual = 0.0262948, Final residual = 0.0019123, No Iterations 6
Pressure gradient source: uncorrected Ubar = 1.00016, pressure gradient = 3.90298
GAMG:  Solving for p, Initial residual = 0.00264034, Final residual = 0.000239126, No Iterations 24
time step continuity errors : sum local = 0.000257119, global = 1.88109e-17, cumulative = -9.05062e-16
Pressure gradient source: uncorrected Ubar = 0.999941, pressure gradient = 4.08314
smoothSolver:  Solving for omega, Initial residual = 0.00208962, Final residual = 0.000150008, No Iterations 6
smoothSolver:  Solving for k, Initial residual = 0.00659624, Final residual = 0.000511693, No Iterations 6
ExecutionTime = 0.165038 s  ClockTime = 0 s

Time = 52s

smoothSolver:  Solving for Ux, Initial residual = 0.00449214, Final residual = 0.000388484, No Iterations 5
smoothSolver:  Solving for Uy, Initial residual = 0.0252285, Final residual = 0.00184485, No Iterations 6
Pressure gradient source: uncorrected Ubar = 1.00015, pressure gradient = 3.95942
GAMG:  Solving for p, Initial residual = 0.00310744, Final residual = 0.000285231, No Iterations 21
time step continuity errors : sum local = 0.000238735, global = 2.97071e-17, cumulative = -8.75355e-16
Pressure gradient source: uncorrected Ubar = 0.99994, pressure gradient = 4.13427
smoothSolver:  Solving for omega, Initial residual = 0.002017, Final residual = 0.000150152, No Iterations 6
smoothSolver:  Solving for k, Initial residual = 0.00655584, Final residual = 0.00050804, No Iterations 6
ExecutionTime = 0.16843 s  ClockTime = 0 s

Time = 53s

smoothSolver:  Solving for Ux, Initial residual = 0.00442267, Final residual = 0.000383579, No Iterations 5
smoothSolver:  Solving for Uy, Initial residual = 0.0242186, Final residual = 0.00177928, No Iterations 6
Pressure gradient source: uncorrected Ubar = 1.00019, pressure gradient = 3.97118
GAMG:  Solving for p, Initial residual = 0.00385379, Final residual = 0.000349068, No Iterations 21
time step continuity errors : sum local = 0.000214894, global = -3.29055e-17, cumulative = -9.08261e-16
Pressure gradient source: uncorrected Ubar = 0.999947, pressure gradient = 4.18106
smoothSolver:  Solving for omega, Initial residual = 0.00193617, Final residual = 0.000142023, No Iterations 6
smoothSolver:  Solving for k, Initial residual = 0.00651018, Final residual = 0.000507371, No Iterations 6
ExecutionTime = 0.171824 s  ClockTime = 0 s

Time = 54s

smoothSolver:  Solving for Ux, Initial residual = 0.00435686, Final residual = 0.00037922, No Iterations 5
smoothSolver:  Solving for Uy, Initial residual = 0.0232659, Final residual = 0.0017134, No Iterations 6
Pressure gradient source: uncorrected Ubar = 1.00022, pressure gradient = 3.98418
GAMG:  Solving for p, Initial residual = 0.00516399, Final residual = 0.000452825, No Iterations 25
time step continuity errors : sum local = 0.00019282, global = 1.62224e-17, cumulative = -8.92038e-16
Pressure gradient source: uncorrected Ubar = 0.999953, pressure gradient = 4.22433
smoothSolver:  Solving for omega, Initial residual = 0.00186597, Final residual = 0.000139568, No Iterations 6
smoothSolver:  Solving for k, Initial residual = 0.00648065, Final residual = 0.000507302, No Iterations 6
ExecutionTime = 0.175395 s  ClockTime = 0 s

Time = 55s

smoothSolver:  Solving for Ux, Initial residual = 0.00429264, Final residual = 0.000375038, No Iterations 5
smoothSolver:  Solving for Uy, Initial residual = 0.0224338, Final residual = 0.00165284, No Iterations 6
Pressure gradient source: uncorrected Ubar = 1.00024, pressure gradient = 3.99909
GAMG:  Solving for p, Initial residual = 0.00798144, Final residual = 0.000790067, No Iterations 23
time step continuity errors : sum local = 0.000207523, global = 5.95769e-17, cumulative = -8.32462e-16
Pressure gradient source: uncorrected Ubar = 0.999957, pressure gradient = 4.26458
smoothSolver:  Solving for omega, Initial residual = 0.00179335, Final residual = 0.000132635, No Iterations 6
smoothSolver:  Solving for k, Initial residual = 0.00646218, Final residual = 0.000511328, No Iterations 6
ExecutionTime = 0.178869 s  ClockTime = 0 s

Time = 56s

smoothSolver:  Solving for Ux, Initial residual = 0.00423193, Final residual = 0.000370855, No Iterations 5
smoothSolver:  Solving for Uy, Initial residual = 0.0214954, Final residual = 0.00158366, No Iterations 6
Pressure gradient source: uncorrected Ubar = 1.00026, pressure gradient = 4.00908
GAMG:  Solving for p, Initial residual = 0.0147034, Final residual = 0.00144526, No Iterations 23
time step continuity errors : sum local = 0.000188806, global = 4.60783e-18, cumulative = -8.27854e-16
Pressure gradient source: uncorrected Ubar = 0.999962, pressure gradient = 4.30159
smoothSolver:  Solving for omega, Initial residual = 0.0017414, Final residual = 0.000131582, No Iterations 6
smoothSolver:  Solving for k, Initial residual = 0.00641403, Final residual = 0.000505379, No Iterations 6
ExecutionTime = 0.182394 s  ClockTime = 0 s

Time = 57s

smoothSolver:  Solving for Ux, Initial residual = 0.00417507, Final residual = 0.000366854, No Iterations 5
smoothSolver:  Solving for Uy, Initial residual = 0.0207815, Final residual = 0.00153609, No Iterations 6
Pressure gradient source: uncorrected Ubar = 1.00028, pressure gradient = 4.01557
GAMG:  Solving for p, Initial residual = 0.0127346, Final residual = 0.00124148, No Iterations 23
time step continuity errors : sum local = 0.000172874, global = 5.35325e-18, cumulative = -8.225e-16
Pressure gradient source: uncorrected Ubar = 0.999967, pressure gradient = 4.33515
smoothSolver:  Solving for omega, Initial residual = 0.00167793, Final residual = 0.000125085, No Iterations 6
smoothSolver:  Solving for k, Initial residual = 0.00638641, Final residual = 0.000508197, No Iterations 6
ExecutionTime = 0.185995 s  ClockTime = 0 s

Time = 58s

smoothSolver:  Solving for Ux, Initial residual = 0.00412026, Final residual = 0.000363136, No Iterations 5
smoothSolver:  Solving for Uy, Initial residual = 0.0200469, Final residual = 0.00148445, No Iterations 6
Pressure gradient source: uncorrected Ubar = 1.00031, pressure gradient = 4.00786
GAMG:  Solving for p, Initial residual = 0.00689801, Final residual = 0.000661103, No Iterations 23
time step continuity errors : sum local = 0.000155354, global = -5.87909e-17, cumulative = -8.81291e-16
Pressure gradient source: uncorrected Ubar = 0.999973, pressure gradient = 4.3634
smoothSolver:  Solving for omega, Initial residual = 0.00163106, Final residual = 0.000123778, No Iterations 6
smoothSolver:  Solving for k, Initial residual = 0.00635043, Final residual = 0.00050593, No Iterations 6
ExecutionTime = 0.189485 s  ClockTime = 0 s

Time = 59s

smoothSolver:  Solving for Ux, Initial residual = 0.00406706, Final residual = 0.000359722, No Iterations 5
smoothSolver:  Solving for Uy, Initial residual = 0.0193779, Final residual = 0.00143904, No Iterations 6
Pressure gradient source: uncorrected Ubar = 1.00033, pressure gradient = 4.00757
GAMG:  Solving for p, Initial residual = 0.00471702, Final residual = 0.000441827, No Iterations 23
time step continuity errors : sum local = 0.000140838, global = 4.83825e-17, cumulative = -8.32909e-16
Pressure gradient source: uncorrected Ubar = 0.999977, pressure gradient = 4.38824
smoothSolver:  Solving for omega, Initial residual = 0.00157714, Final residual = 0.000117209, No Iterations 6
smoothSolver:  Solving for k, Initial residual = 0.00631856, Final residual = 0.000506019, No Iterations 6
ExecutionTime = 0.193021 s  ClockTime = 0 s

Time = 60s

smoothSolver:  Solving for Ux, Initial residual = 0.00401608, Final residual = 0.00035644, No Iterations 5
smoothSolver:  Solving for Uy, Initial residual = 0.0187561, Final residual = 0.00138642, No Iterations 6
Pressure gradient source: uncorrected Ubar = 1.00036, pressure gradient = 3.99179
GAMG:  Solving for p, Initial residual = 0.00357659, Final residual = 0.000322544, No Iterations 23
time step continuity errors : sum local = 0.00012715, global = -3.68968e-17, cumulative = -8.69806e-16
Pressure gradient source: uncorrected Ubar = 0.999982, pressure gradient = 4.40773
smoothSolver:  Solving for omega, Initial residual = 0.00153172, Final residual = 0.000114344, No Iterations 6
smoothSolver:  Solving for k, Initial residual = 0.00623928, Final residual = 0.000495192, No Iterations 6
ExecutionTime = 0.196605 s  ClockTime = 0 s

Time = 61s

smoothSolver:  Solving for Ux, Initial residual = 0.00396825, Final residual = 0.000353223, No Iterations 5
smoothSolver:  Solving for Uy, Initial residual = 0.0183342, Final residual = 0.00133714, No Iterations 6
Pressure gradient source: uncorrected Ubar = 1.00037, pressure gradient = 3.98294
GAMG:  Solving for p, Initial residual = 0.00287493, Final residual = 0.000286056, No Iterations 21
time step continuity errors : sum local = 0.000130819, global = 6.0634e-17, cumulative = -8.09172e-16
Pressure gradient source: uncorrected Ubar = 0.999986, pressure gradient = 4.42365
smoothSolver:  Solving for omega, Initial residual = 0.00149113, Final residual = 0.000112267, No Iterations 6
smoothSolver:  Solving for k, Initial residual = 0.00619146, Final residual = 0.000491373, No Iterations 6
ExecutionTime = 0.199974 s  ClockTime = 0 s

Time = 62s

smoothSolver:  Solving for Ux, Initial residual = 0.00392235, Final residual = 0.000350028, No Iterations 5
smoothSolver:  Solving for Uy, Initial residual = 0.017939, Final residual = 0.00128949, No Iterations 6
Pressure gradient source: uncorrected Ubar = 1.00039, pressure gradient = 3.96218
GAMG:  Solving for p, Initial residual = 0.00258363, Final residual = 0.000233204, No Iterations 21
time step continuity errors : sum local = 0.000118513, global = -1.21973e-18, cumulative = -8.10391e-16
Pressure gradient source: uncorrected Ubar = 0.999991, pressure gradient = 4.43454
smoothSolver:  Solving for omega, Initial residual = 0.00144842, Final residual = 0.000107671, No Iterations 6
smoothSolver:  Solving for k, Initial residual = 0.00616692, Final residual = 0.0004905, No Iterations 6
ExecutionTime = 0.203394 s  ClockTime = 0 s

Time = 63s

smoothSolver:  Solving for Ux, Initial residual = 0.00387831, Final residual = 0.000347122, No Iterations 5
smoothSolver:  Solving for Uy, Initial residual = 0.0176872, Final residual = 0.00124807, No Iterations 6
Pressure gradient source: uncorrected Ubar = 1.00041, pressure gradient = 3.93634
GAMG:  Solving for p, Initial residual = 0.00220084, Final residual = 0.000218674, No Iterations 19
time step continuity errors : sum local = 0.000121135, global = -3.14283e-17, cumulative = -8.4182e-16
Pressure gradient source: uncorrected Ubar = 0.999995, pressure gradient = 4.44025
smoothSolver:  Solving for omega, Initial residual = 0.00141337, Final residual = 0.000105726, No Iterations 6
smoothSolver:  Solving for k, Initial residual = 0.00614671, Final residual = 0.000491771, No Iterations 6
ExecutionTime = 0.206687 s  ClockTime = 0 s

Time = 64s

smoothSolver:  Solving for Ux, Initial residual = 0.0038353, Final residual = 0.00034444, No Iterations 5
smoothSolver:  Solving for Uy, Initial residual = 0.0174276, Final residual = 0.00122112, No Iterations 6
Pressure gradient source: uncorrected Ubar = 1.00043, pressure gradient = 3.91314
GAMG:  Solving for p, Initial residual = 0.00193245, Final residual = 0.000184812, No Iterations 19
time step continuity errors : sum local = 0.000109266, global = 1.26242e-17, cumulative = -8.29195e-16
Pressure gradient source: uncorrected Ubar = 0.999999, pressure gradient = 4.44194
smoothSolver:  Solving for omega, Initial residual = 0.00137596, Final residual = 0.000103502, No Iterations 6
smoothSolver:  Solving for k, Initial residual = 0.00609351, Final residual = 0.000485503, No Iterations 6
ExecutionTime = 0.209975 s  ClockTime = 0 s

Time = 65s

smoothSolver:  Solving for Ux, Initial residual = 0.00379434, Final residual = 0.000341829, No Iterations 5
smoothSolver:  Solving for Uy, Initial residual = 0.0172168, Final residual = 0.00120511, No Iterations 6
Pressure gradient source: uncorrected Ubar = 1.00043, pressure gradient = 3.89418
GAMG:  Solving for p, Initial residual = 0.00173585, Final residual = 0.00015894, No Iterations 19
time step continuity errors : sum local = 9.91844e-05, global = 2.77827e-19, cumulative = -8.28918e-16
Pressure gradient source: uncorrected Ubar = 1, pressure gradient = 4.44083
smoothSolver:  Solving for omega, Initial residual = 0.00134527, Final residual = 0.000100306, No Iterations 6
smoothSolver:  Solving for k, Initial residual = 0.00607213, Final residual = 0.000487087, No Iterations 6
ExecutionTime = 0.213271 s  ClockTime = 0 s

Time = 66s

smoothSolver:  Solving for Ux, Initial residual = 0.00375575, Final residual = 0.000339307, No Iterations 5
smoothSolver:  Solving for Uy, Initial residual = 0.0170072, Final residual = 0.00119314, No Iterations 6
Pressure gradient source: uncorrected Ubar = 1.00044, pressure gradient = 3.86249
GAMG:  Solving for p, Initial residual = 0.00153665, Final residual = 0.000134611, No Iterations 19
time step continuity errors : sum local = 8.81836e-05, global = -7.63549e-17, cumulative = -9.05272e-16
Pressure gradient source: uncorrected Ubar = 1, pressure gradient = 4.43514
smoothSolver:  Solving for omega, Initial residual = 0.00131675, Final residual = 9.84082e-05, No Iterations 6
smoothSolver:  Solving for k, Initial residual = 0.00604118, Final residual = 0.000485157, No Iterations 6
ExecutionTime = 0.216574 s  ClockTime = 0 s

Time = 67s

smoothSolver:  Solving for Ux, Initial residual = 0.00371751, Final residual = 0.000336749, No Iterations 5
smoothSolver:  Solving for Uy, Initial residual = 0.0168332, Final residual = 0.00118839, No Iterations 6
Pressure gradient source: uncorrected Ubar = 1.00045, pressure gradient = 3.83873
GAMG:  Solving for p, Initial residual = 0.00139144, Final residual = 0.000129537, No Iterations 17
time step continuity errors : sum local = 8.81087e-05, global = -6.27618e-17, cumulative = -9.68034e-16
Pressure gradient source: uncorrected Ubar = 1.00001, pressure gradient = 4.4269
smoothSolver:  Solving for omega, Initial residual = 0.00129142, Final residual = 9.71267e-05, No Iterations 6
smoothSolver:  Solving for k, Initial residual = 0.00600834, Final residual = 0.000483733, No Iterations 6
ExecutionTime = 0.219783 s  ClockTime = 0 s

Time = 68s

smoothSolver:  Solving for Ux, Initial residual = 0.00368054, Final residual = 0.000334349, No Iterations 5
smoothSolver:  Solving for Uy, Initial residual = 0.0166538, Final residual = 0.00118886, No Iterations 6
Pressure gradient source: uncorrected Ubar = 1.00046, pressure gradient = 3.80525
GAMG:  Solving for p, Initial residual = 0.00136918, Final residual = 0.000127755, No Iterations 15
time step continuity errors : sum local = 8.81486e-05, global = -2.32697e-17, cumulative = -9.91304e-16
Pressure gradient source: uncorrected Ubar = 1.00001, pressure gradient = 4.41484
smoothSolver:  Solving for omega, Initial residual = 0.0012659, Final residual = 9.59007e-05, No Iterations 6
smoothSolver:  Solving for k, Initial residual = 0.00597648, Final residual = 0.000481713, No Iterations 6
ExecutionTime = 0.222893 s  ClockTime = 0 s

Time = 69s

smoothSolver:  Solving for Ux, Initial residual = 0.00364488, Final residual = 0.000332154, No Iterations 5
smoothSolver:  Solving for Uy, Initial residual = 0.0164044, Final residual = 0.00118936, No Iterations 6
Pressure gradient source: uncorrected Ubar = 1.00046, pressure gradient = 3.77258
GAMG:  Solving for p, Initial residual = 0.00129069, Final residual = 0.000117532, No Iterations 15
time step continuity errors : sum local = 8.18053e-05, global = 4.44523e-18, cumulative = -9.86859e-16
Pressure gradient source: uncorrected Ubar = 1.00001, pressure gradient = 4.39962
smoothSolver:  Solving for omega, Initial residual = 0.00124077, Final residual = 9.35347e-05, No Iterations 6
smoothSolver:  Solving for k, Initial residual = 0.00594026, Final residual = 0.000479996, No Iterations 6
ExecutionTime = 0.225976 s  ClockTime = 0 s

Time = 70s

smoothSolver:  Solving for Ux, Initial residual = 0.0036106, Final residual = 0.000330037, No Iterations 5
smoothSolver:  Solving for Uy, Initial residual = 0.0163183, Final residual = 0.00121281, No Iterations 6
Pressure gradient source: uncorrected Ubar = 1.00046, pressure gradient = 3.742
GAMG:  Solving for p, Initial residual = 0.0012013, Final residual = 0.000106576, No Iterations 15
time step continuity errors : sum local = 7.50111e-05, global = 9.55792e-18, cumulative = -9.77301e-16
Pressure gradient source: uncorrected Ubar = 1.00001, pressure gradient = 4.38201
smoothSolver:  Solving for omega, Initial residual = 0.00121513, Final residual = 9.15063e-05, No Iterations 6
smoothSolver:  Solving for k, Initial residual = 0.0059107, Final residual = 0.000478452, No Iterations 6
ExecutionTime = 0.229081 s  ClockTime = 0 s

Time = 71s

smoothSolver:  Solving for Ux, Initial residual = 0.00357825, Final residual = 0.000327979, No Iterations 5
smoothSolver:  Solving for Uy, Initial residual = 0.0162934, Final residual = 0.00123316, No Iterations 6
Pressure gradient source: uncorrected Ubar = 1.00046, pressure gradient = 3.71497
GAMG:  Solving for p, Initial residual = 0.00111878, Final residual = 0.00011015, No Iterations 13
time step continuity errors : sum local = 7.78365e-05, global = -2.33103e-18, cumulative = -9.79632e-16
Pressure gradient source: uncorrected Ubar = 1.00001, pressure gradient = 4.36296
smoothSolver:  Solving for omega, Initial residual = 0.0011937, Final residual = 9.10747e-05, No Iterations 6
smoothSolver:  Solving for k, Initial residual = 0.00589149, Final residual = 0.000479169, No Iterations 6
ExecutionTime = 0.232078 s  ClockTime = 0 s

Time = 72s

smoothSolver:  Solving for Ux, Initial residual = 0.00354656, Final residual = 0.000325903, No Iterations 5
smoothSolver:  Solving for Uy, Initial residual = 0.0162175, Final residual = 0.0012442, No Iterations 6
Pressure gradient source: uncorrected Ubar = 1.00046, pressure gradient = 3.67807
GAMG:  Solving for p, Initial residual = 0.00103586, Final residual = 0.000100679, No Iterations 13
time step continuity errors : sum local = 7.09045e-05, global = -3.52806e-17, cumulative = -1.01491e-15
Pressure gradient source: uncorrected Ubar = 1.00001, pressure gradient = 4.34096
smoothSolver:  Solving for omega, Initial residual = 0.00116971, Final residual = 8.87855e-05, No Iterations 6
smoothSolver:  Solving for k, Initial residual = 0.00586369, Final residual = 0.000478072, No Iterations 6
ExecutionTime = 0.23509 s  ClockTime = 0 s

Time = 73s

smoothSolver:  Solving for Ux, Initial residual = 0.00351579, Final residual = 0.000323945, No Iterations 5
smoothSolver:  Solving for Uy, Initial residual = 0.0162091, Final residual = 0.0012593, No Iterations 6
Pressure gradient source: uncorrected Ubar = 1.00046, pressure gradient = 3.64471
GAMG:  Solving for p, Initial residual = 0.00097752, Final residual = 8.90363e-05, No Iterations 13
time step continuity errors : sum local = 6.28039e-05, global = 2.83925e-17, cumulative = -9.8652e-16
Pressure gradient source: uncorrected Ubar = 1.00002, pressure gradient = 4.31705
smoothSolver:  Solving for omega, Initial residual = 0.00114579, Final residual = 8.71633e-05, No Iterations 6
smoothSolver:  Solving for k, Initial residual = 0.00582699, Final residual = 0.000475857, No Iterations 6
ExecutionTime = 0.2381 s  ClockTime = 0 s

Time = 74s

smoothSolver:  Solving for Ux, Initial residual = 0.00348571, Final residual = 0.000322178, No Iterations 5
smoothSolver:  Solving for Uy, Initial residual = 0.0162477, Final residual = 0.00125926, No Iterations 6
Pressure gradient source: uncorrected Ubar = 1.00046, pressure gradient = 3.61237
GAMG:  Solving for p, Initial residual = 0.000991006, Final residual = 9.24904e-05, No Iterations 11
time step continuity errors : sum local = 6.41454e-05, global = -8.5015e-17, cumulative = -1.07153e-15
Pressure gradient source: uncorrected Ubar = 1.00002, pressure gradient = 4.29168
smoothSolver:  Solving for omega, Initial residual = 0.0011253, Final residual = 8.64416e-05, No Iterations 6
smoothSolver:  Solving for k, Initial residual = 0.0057977, Final residual = 0.000474877, No Iterations 6
ExecutionTime = 0.240989 s  ClockTime = 0 s

Time = 75s

smoothSolver:  Solving for Ux, Initial residual = 0.00345674, Final residual = 0.000320451, No Iterations 5
smoothSolver:  Solving for Uy, Initial residual = 0.0162047, Final residual = 0.00126797, No Iterations 6
Pressure gradient source: uncorrected Ubar = 1.00046, pressure gradient = 3.5691
GAMG:  Solving for p, Initial residual = 0.00101364, Final residual = 9.27139e-05, No Iterations 11
time step continuity errors : sum local = 6.27258e-05, global = 1.61004e-17, cumulative = -1.05543e-15
Pressure gradient source: uncorrected Ubar = 1.00002, pressure gradient = 4.26316
smoothSolver:  Solving for omega, Initial residual = 0.00110328, Final residual = 8.42996e-05, No Iterations 6
smoothSolver:  Solving for k, Initial residual = 0.00575764, Final residual = 0.000471045, No Iterations 6
ExecutionTime = 0.243903 s  ClockTime = 0 s

Time = 76s

smoothSolver:  Solving for Ux, Initial residual = 0.00342934, Final residual = 0.000318823, No Iterations 5
smoothSolver:  Solving for Uy, Initial residual = 0.01645, Final residual = 0.00129807, No Iterations 6
Pressure gradient source: uncorrected Ubar = 1.00046, pressure gradient = 3.53711
GAMG:  Solving for p, Initial residual = 0.000950985, Final residual = 8.78866e-05, No Iterations 11
time step continuity errors : sum local = 5.88003e-05, global = -8.47032e-18, cumulative = -1.0639e-15
Pressure gradient source: uncorrected Ubar = 1.00002, pressure gradient = 4.23395
smoothSolver:  Solving for omega, Initial residual = 0.00108415, Final residual = 8.37564e-05, No Iterations 6
smoothSolver:  Solving for k, Initial residual = 0.00574827, Final residual = 0.000473748, No Iterations 6
ExecutionTime = 0.246803 s  ClockTime = 0 s

Time = 77s

smoothSolver:  Solving for Ux, Initial residual = 0.00340299, Final residual = 0.000317185, No Iterations 5
smoothSolver:  Solving for Uy, Initial residual = 0.0166762, Final residual = 0.00132403, No Iterations 6
Pressure gradient source: uncorrected Ubar = 1.00046, pressure gradient = 3.4964
GAMG:  Solving for p, Initial residual = 0.000897857, Final residual = 7.50818e-05, No Iterations 11
time step continuity errors : sum local = 5.0132e-05, global = 2.79182e-17, cumulative = -1.03599e-15
Pressure gradient source: uncorrected Ubar = 1.00002, pressure gradient = 4.20254
smoothSolver:  Solving for omega, Initial residual = 0.00106668, Final residual = 8.28957e-05, No Iterations 6
smoothSolver:  Solving for k, Initial residual = 0.00571665, Final residual = 0.000470956, No Iterations 6
ExecutionTime = 0.249694 s  ClockTime = 0 s

Time = 78s

smoothSolver:  Solving for Ux, Initial residual = 0.00337752, Final residual = 0.000315618, No Iterations 5
smoothSolver:  Solving for Uy, Initial residual = 0.0166933, Final residual = 0.00133179, No Iterations 6
Pressure gradient source: uncorrected Ubar = 1.00045, pressure gradient = 3.45536
GAMG:  Solving for p, Initial residual = 0.000835463, Final residual = 8.23756e-05, No Iterations 8
time step continuity errors : sum local = 5.75899e-05, global = -4.92228e-17, cumulative = -1.08521e-15
Pressure gradient source: uncorrected Ubar = 1.00002, pressure gradient = 4.16923
smoothSolver:  Solving for omega, Initial residual = 0.00104965, Final residual = 8.20902e-05, No Iterations 6
smoothSolver:  Solving for k, Initial residual = 0.00568996, Final residual = 0.000470223, No Iterations 6
ExecutionTime = 0.252446 s  ClockTime = 0 s

Time = 79s

smoothSolver:  Solving for Ux, Initial residual = 0.00335264, Final residual = 0.000314152, No Iterations 5
smoothSolver:  Solving for Uy, Initial residual = 0.0167211, Final residual = 0.00133657, No Iterations 6
Pressure gradient source: uncorrected Ubar = 1.00045, pressure gradient = 3.4108
GAMG:  Solving for p, Initial residual = 0.000816658, Final residual = 7.81678e-05, No Iterations 9
time step continuity errors : sum local = 4.89894e-05, global = -2.0776e-17, cumulative = -1.10599e-15
Pressure gradient source: uncorrected Ubar = 1.00002, pressure gradient = 4.13369
smoothSolver:  Solving for omega, Initial residual = 0.00103298, Final residual = 8.04424e-05, No Iterations 6
smoothSolver:  Solving for k, Initial residual = 0.00565443, Final residual = 0.000467076, No Iterations 6
ExecutionTime = 0.255264 s  ClockTime = 0 s

Time = 80s

smoothSolver:  Solving for Ux, Initial residual = 0.00332885, Final residual = 0.000312898, No Iterations 5
smoothSolver:  Solving for Uy, Initial residual = 0.0168541, Final residual = 0.00134593, No Iterations 6
Pressure gradient source: uncorrected Ubar = 1.00045, pressure gradient = 3.36927
GAMG:  Solving for p, Initial residual = 0.000836762, Final residual = 7.35729e-05, No Iterations 9
time step continuity errors : sum local = 4.48035e-05, global = -5.85469e-17, cumulative = -1.16453e-15
Pressure gradient source: uncorrected Ubar = 1.00002, pressure gradient = 4.09678
smoothSolver:  Solving for omega, Initial residual = 0.00101915, Final residual = 8.00267e-05, No Iterations 6
smoothSolver:  Solving for k, Initial residual = 0.00562203, Final residual = 0.000465513, No Iterations 6
ExecutionTime = 0.258058 s  ClockTime = 0 s

Time = 81s

smoothSolver:  Solving for Ux, Initial residual = 0.00330594, Final residual = 0.00031165, No Iterations 5
smoothSolver:  Solving for Uy, Initial residual = 0.0169789, Final residual = 0.00135302, No Iterations 6
Pressure gradient source: uncorrected Ubar = 1.00045, pressure gradient = 3.31917
GAMG:  Solving for p, Initial residual = 0.000895082, Final residual = 7.43577e-05, No Iterations 8
time step continuity errors : sum local = 4.69861e-05, global = -8.5408e-17, cumulative = -1.24994e-15
Pressure gradient source: uncorrected Ubar = 1.00002, pressure gradient = 4.05721
smoothSolver:  Solving for omega, Initial residual = 0.00100374, Final residual = 7.89884e-05, No Iterations 6
smoothSolver:  Solving for k, Initial residual = 0.00559423, Final residual = 0.000463416, No Iterations 6
ExecutionTime = 0.260801 s  ClockTime = 0 s

Time = 82s

smoothSolver:  Solving for Ux, Initial residual = 0.00328393, Final residual = 0.000310454, No Iterations 5
smoothSolver:  Solving for Uy, Initial residual = 0.0170485, Final residual = 0.00136916, No Iterations 6
Pressure gradient source: uncorrected Ubar = 1.00045, pressure gradient = 3.27435
GAMG:  Solving for p, Initial residual = 0.000828254, Final residual = 6.84424e-05, No Iterations 8
time step continuity errors : sum local = 4.25621e-05, global = -3.74727e-18, cumulative = -1.25369e-15
Pressure gradient source: uncorrected Ubar = 1.00002, pressure gradient = 4.01639
smoothSolver:  Solving for omega, Initial residual = 0.000989615, Final residual = 7.84097e-05, No Iterations 6
smoothSolver:  Solving for k, Initial residual = 0.00558035, Final residual = 0.000464432, No Iterations 6
ExecutionTime = 0.263573 s  ClockTime = 0 s

Time = 83s

smoothSolver:  Solving for Ux, Initial residual = 0.00326317, Final residual = 0.000309284, No Iterations 5
smoothSolver:  Solving for Uy, Initial residual = 0.0171287, Final residual = 0.00137711, No Iterations 6
Pressure gradient source: uncorrected Ubar = 1.00045, pressure gradient = 3.21853
GAMG:  Solving for p, Initial residual = 0.000792381, Final residual = 6.6798e-05, No Iterations 8
time step continuity errors : sum local = 3.95821e-05, global = 2.06473e-17, cumulative = -1.23304e-15
Pressure gradient source: uncorrected Ubar = 1.00002, pressure gradient = 3.97247
smoothSolver:  Solving for omega, Initial residual = 0.000977019, Final residual = 7.69037e-05, No Iterations 6
smoothSolver:  Solving for k, Initial residual = 0.00554494, Final residual = 0.000460498, No Iterations 6
ExecutionTime = 0.266344 s  ClockTime = 0 s

Time = 84s

smoothSolver:  Solving for Ux, Initial residual = 0.00324327, Final residual = 0.000308206, No Iterations 5
smoothSolver:  Solving for Uy, Initial residual = 0.0173027, Final residual = 0.00139469, No Iterations 6
Pressure gradient source: uncorrected Ubar = 1.00045, pressure gradient = 3.16576
GAMG:  Solving for p, Initial residual = 0.000781553, Final residual = 6.59593e-05, No Iterations 8
time step continuity errors : sum local = 3.78322e-05, global = 1.51449e-17, cumulative = -1.2179e-15
Pressure gradient source: uncorrected Ubar = 1.00003, pressure gradient = 3.92654
smoothSolver:  Solving for omega, Initial residual = 0.00096616, Final residual = 7.64901e-05, No Iterations 6
smoothSolver:  Solving for k, Initial residual = 0.00552221, Final residual = 0.000460162, No Iterations 6
ExecutionTime = 0.269098 s  ClockTime = 0 s

Time = 85s

smoothSolver:  Solving for Ux, Initial residual = 0.00322374, Final residual = 0.000307159, No Iterations 5
smoothSolver:  Solving for Uy, Initial residual = 0.0174494, Final residual = 0.00140989, No Iterations 6
Pressure gradient source: uncorrected Ubar = 1.00045, pressure gradient = 3.11166
GAMG:  Solving for p, Initial residual = 0.00074935, Final residual = 6.20767e-05, No Iterations 8
time step continuity errors : sum local = 3.51581e-05, global = -9.48743e-20, cumulative = -1.21799e-15
Pressure gradient source: uncorrected Ubar = 1.00003, pressure gradient = 3.87873
smoothSolver:  Solving for omega, Initial residual = 0.000956138, Final residual = 7.58291e-05, No Iterations 6
smoothSolver:  Solving for k, Initial residual = 0.00548477, Final residual = 0.000456398, No Iterations 6
ExecutionTime = 0.271845 s  ClockTime = 0 s

Time = 86s

smoothSolver:  Solving for Ux, Initial residual = 0.00320491, Final residual = 0.000306276, No Iterations 5
smoothSolver:  Solving for Uy, Initial residual = 0.0174616, Final residual = 0.0014137, No Iterations 6
Pressure gradient source: uncorrected Ubar = 1.00044, pressure gradient = 3.06523
GAMG:  Solving for p, Initial residual = 0.000737819, Final residual = 7.19199e-05, No Iterations 6
time step continuity errors : sum local = 3.92592e-05, global = 1.16145e-17, cumulative = -1.20638e-15
Pressure gradient source: uncorrected Ubar = 1.00003, pressure gradient = 3.83078
smoothSolver:  Solving for omega, Initial residual = 0.00094712, Final residual = 7.56234e-05, No Iterations 6
smoothSolver:  Solving for k, Initial residual = 0.00546946, Final residual = 0.000457578, No Iterations 6
ExecutionTime = 0.274501 s  ClockTime = 0 s

Time = 87s

smoothSolver:  Solving for Ux, Initial residual = 0.0031866, Final residual = 0.000305399, No Iterations 5
smoothSolver:  Solving for Uy, Initial residual = 0.017453, Final residual = 0.00140064, No Iterations 6
Pressure gradient source: uncorrected Ubar = 1.00045, pressure gradient = 3.00133
GAMG:  Solving for p, Initial residual = 0.000831522, Final residual = 6.94905e-05, No Iterations 7
time step continuity errors : sum local = 3.36888e-05, global = 1.15264e-17, cumulative = -1.19485e-15
Pressure gradient source: uncorrected Ubar = 1.00003, pressure gradient = 3.7795
smoothSolver:  Solving for omega, Initial residual = 0.000937818, Final residual = 7.42378e-05, No Iterations 6
smoothSolver:  Solving for k, Initial residual = 0.00543726, Final residual = 0.000454043, No Iterations 6
ExecutionTime = 0.277233 s  ClockTime = 0 s

Time = 88s

smoothSolver:  Solving for Ux, Initial residual = 0.00316934, Final residual = 0.000304596, No Iterations 5
smoothSolver:  Solving for Uy, Initial residual = 0.0174867, Final residual = 0.00141655, No Iterations 6
Pressure gradient source: uncorrected Ubar = 1.00044, pressure gradient = 2.94399
GAMG:  Solving for p, Initial residual = 0.000787645, Final residual = 7.28556e-05, No Iterations 6
time step continuity errors : sum local = 3.62381e-05, global = 1.27123e-17, cumulative = -1.18214e-15
Pressure gradient source: uncorrected Ubar = 1.00003, pressure gradient = 3.72666
smoothSolver:  Solving for omega, Initial residual = 0.000930232, Final residual = 7.38523e-05, No Iterations 6
smoothSolver:  Solving for k, Initial residual = 0.00541236, Final residual = 0.000453204, No Iterations 6
ExecutionTime = 0.279893 s  ClockTime = 0 s

Time = 89s

smoothSolver:  Solving for Ux, Initial residual = 0.00315262, Final residual = 0.000303819, No Iterations 5
smoothSolver:  Solving for Uy, Initial residual = 0.0176139, Final residual = 0.00143048, No Iterations 6
Pressure gradient source: uncorrected Ubar = 1.00044, pressure gradient = 2.88902
GAMG:  Solving for p, Initial residual = 0.000756874, Final residual = 6.89029e-05, No Iterations 6
time step continuity errors : sum local = 3.36433e-05, global = 1.76183e-18, cumulative = -1.18038e-15
[...]
smoothSolver:  Solving for k, Initial residual = 1.97262e-05, Final residual = 7.87669e-06, No Iterations 2
ExecutionTime = 8.9133 s  ClockTime = 9 s

Time = 3413s

smoothSolver:  Solving for Ux, Initial residual = 4.161e-06, Final residual = 4.161e-06, No Iterations 0
smoothSolver:  Solving for Uy, Initial residual = 0.000117332, Final residual = 1.06871e-05, No Iterations 4
Pressure gradient source: uncorrected Ubar = 1, pressure gradient = 0.00415674
GAMG:  Solving for p, Initial residual = 7.30005e-05, Final residual = 6.9957e-06, No Iterations 7
time step continuity errors : sum local = 2.32928e-10, global = 4.24648e-18, cumulative = -1.39159e-15
Pressure gradient source: uncorrected Ubar = 1, pressure gradient = 0.0041568
smoothSolver:  Solving for omega, Initial residual = 7.91483e-06, Final residual = 7.91483e-06, No Iterations 0
smoothSolver:  Solving for k, Initial residual = 1.97223e-05, Final residual = 7.87524e-06, No Iterations 2
ExecutionTime = 8.91589 s  ClockTime = 9 s

Time = 3414s

smoothSolver:  Solving for Ux, Initial residual = 4.13166e-06, Final residual = 4.13166e-06, No Iterations 0
smoothSolver:  Solving for Uy, Initial residual = 0.000116424, Final residual = 1.04637e-05, No Iterations 4
Pressure gradient source: uncorrected Ubar = 1, pressure gradient = 0.0041568
GAMG:  Solving for p, Initial residual = 7.31968e-05, Final residual = 7.12223e-06, No Iterations 7
time step continuity errors : sum local = 2.37383e-10, global = 1.93909e-18, cumulative = -1.38965e-15
Pressure gradient source: uncorrected Ubar = 1, pressure gradient = 0.00415687
smoothSolver:  Solving for omega, Initial residual = 7.91487e-06, Final residual = 7.91487e-06, No Iterations 0
smoothSolver:  Solving for k, Initial residual = 1.97182e-05, Final residual = 7.87367e-06, No Iterations 2
ExecutionTime = 8.91847 s  ClockTime = 9 s

Time = 3415s

smoothSolver:  Solving for Ux, Initial residual = 4.10324e-06, Final residual = 4.10324e-06, No Iterations 0
smoothSolver:  Solving for Uy, Initial residual = 0.000115291, Final residual = 1.02496e-05, No Iterations 4
Pressure gradient source: uncorrected Ubar = 1, pressure gradient = 0.00415687
GAMG:  Solving for p, Initial residual = 7.31042e-05, Final residual = 7.16602e-06, No Iterations 7
time step continuity errors : sum local = 2.39411e-10, global = 2.11464e-18, cumulative = -1.38754e-15
Pressure gradient source: uncorrected Ubar = 1, pressure gradient = 0.00415693
smoothSolver:  Solving for omega, Initial residual = 7.91491e-06, Final residual = 7.91491e-06, No Iterations 0
smoothSolver:  Solving for k, Initial residual = 1.97137e-05, Final residual = 7.87197e-06, No Iterations 2
ExecutionTime = 8.92107 s  ClockTime = 9 s

Time = 3416s

smoothSolver:  Solving for Ux, Initial residual = 4.07479e-06, Final residual = 4.07479e-06, No Iterations 0
smoothSolver:  Solving for Uy, Initial residual = 0.000114343, Final residual = 1.00889e-05, No Iterations 4
Pressure gradient source: uncorrected Ubar = 1, pressure gradient = 0.00415693
GAMG:  Solving for p, Initial residual = 7.2903e-05, Final residual = 7.13858e-06, No Iterations 7
time step continuity errors : sum local = 2.38982e-10, global = -6.978e-18, cumulative = -1.39452e-15
Pressure gradient source: uncorrected Ubar = 1, pressure gradient = 0.00415699
smoothSolver:  Solving for omega, Initial residual = 7.91495e-06, Final residual = 7.91495e-06, No Iterations 0
smoothSolver:  Solving for k, Initial residual = 1.97089e-05, Final residual = 7.87015e-06, No Iterations 2
ExecutionTime = 8.92361 s  ClockTime = 9 s

Time = 3417s

smoothSolver:  Solving for Ux, Initial residual = 4.04632e-06, Final residual = 4.04632e-06, No Iterations 0
smoothSolver:  Solving for Uy, Initial residual = 0.000113646, Final residual = 9.97632e-06, No Iterations 4
Pressure gradient source: uncorrected Ubar = 1, pressure gradient = 0.00415699
GAMG:  Solving for p, Initial residual = 7.26163e-05, Final residual = 7.05157e-06, No Iterations 7
time step continuity errors : sum local = 2.36345e-10, global = 2.66195e-18, cumulative = -1.39186e-15
Pressure gradient source: uncorrected Ubar = 1, pressure gradient = 0.00415706
smoothSolver:  Solving for omega, Initial residual = 7.915e-06, Final residual = 7.915e-06, No Iterations 0
smoothSolver:  Solving for k, Initial residual = 1.97038e-05, Final residual = 7.8682e-06, No Iterations 2
ExecutionTime = 8.92625 s  ClockTime = 9 s

Time = 3418s

smoothSolver:  Solving for Ux, Initial residual = 4.01781e-06, Final residual = 4.01781e-06, No Iterations 0
smoothSolver:  Solving for Uy, Initial residual = 0.000113117, Final residual = 9.89094e-06, No Iterations 4
Pressure gradient source: uncorrected Ubar = 1, pressure gradient = 0.00415706
GAMG:  Solving for p, Initial residual = 7.22761e-05, Final residual = 6.92162e-06, No Iterations 7
time step continuity errors : sum local = 2.32058e-10, global = -2.96514e-18, cumulative = -1.39482e-15
Pressure gradient source: uncorrected Ubar = 1, pressure gradient = 0.00415712
smoothSolver:  Solving for omega, Initial residual = 7.91504e-06, Final residual = 7.91504e-06, No Iterations 0
smoothSolver:  Solving for k, Initial residual = 1.96984e-05, Final residual = 7.86614e-06, No Iterations 2
ExecutionTime = 8.92894 s  ClockTime = 9 s

Time = 3419s

smoothSolver:  Solving for Ux, Initial residual = 3.98936e-06, Final residual = 3.98936e-06, No Iterations 0
smoothSolver:  Solving for Uy, Initial residual = 0.000112659, Final residual = 9.81152e-06, No Iterations 4
Pressure gradient source: uncorrected Ubar = 1, pressure gradient = 0.00415712
GAMG:  Solving for p, Initial residual = 7.19111e-05, Final residual = 6.7682e-06, No Iterations 7
time step continuity errors : sum local = 2.26836e-10, global = -3.94894e-19, cumulative = -1.39522e-15
Pressure gradient source: uncorrected Ubar = 1, pressure gradient = 0.00415719
smoothSolver:  Solving for omega, Initial residual = 7.91508e-06, Final residual = 7.91508e-06, No Iterations 0
smoothSolver:  Solving for k, Initial residual = 1.96927e-05, Final residual = 7.86395e-06, No Iterations 2
ExecutionTime = 8.93149 s  ClockTime = 9 s

Time = 3420s

smoothSolver:  Solving for Ux, Initial residual = 3.96311e-06, Final residual = 3.96311e-06, No Iterations 0
smoothSolver:  Solving for Uy, Initial residual = 0.000112175, Final residual = 9.72146e-06, No Iterations 4
Pressure gradient source: uncorrected Ubar = 1, pressure gradient = 0.00415719
GAMG:  Solving for p, Initial residual = 7.15569e-05, Final residual = 6.60767e-06, No Iterations 7
time step continuity errors : sum local = 2.21301e-10, global = 1.62925e-18, cumulative = -1.39359e-15
Pressure gradient source: uncorrected Ubar = 1, pressure gradient = 0.00415725
smoothSolver:  Solving for omega, Initial residual = 7.91513e-06, Final residual = 7.91513e-06, No Iterations 0
smoothSolver:  Solving for k, Initial residual = 1.96867e-05, Final residual = 7.86164e-06, No Iterations 2
ExecutionTime = 8.93407 s  ClockTime = 9 s

Time = 3421s

smoothSolver:  Solving for Ux, Initial residual = 3.93695e-06, Final residual = 3.93695e-06, No Iterations 0
smoothSolver:  Solving for Uy, Initial residual = 0.000111628, Final residual = 9.61469e-06, No Iterations 4
Pressure gradient source: uncorrected Ubar = 1, pressure gradient = 0.00415725
GAMG:  Solving for p, Initial residual = 7.12191e-05, Final residual = 6.44648e-06, No Iterations 7
time step continuity errors : sum local = 2.15749e-10, global = 4.06977e-18, cumulative = -1.38952e-15
Pressure gradient source: uncorrected Ubar = 1, pressure gradient = 0.00415731
smoothSolver:  Solving for omega, Initial residual = 7.91517e-06, Final residual = 7.91517e-06, No Iterations 0
smoothSolver:  Solving for k, Initial residual = 1.96804e-05, Final residual = 7.8592e-06, No Iterations 2
ExecutionTime = 8.93672 s  ClockTime = 9 s

Time = 3422s

smoothSolver:  Solving for Ux, Initial residual = 3.91109e-06, Final residual = 3.91109e-06, No Iterations 0
smoothSolver:  Solving for Uy, Initial residual = 0.000110973, Final residual = 9.49405e-06, No Iterations 4
Pressure gradient source: uncorrected Ubar = 1, pressure gradient = 0.00415731
GAMG:  Solving for p, Initial residual = 7.09047e-05, Final residual = 6.29724e-06, No Iterations 7
time step continuity errors : sum local = 2.1072e-10, global = 4.36874e-19, cumulative = -1.38908e-15
Pressure gradient source: uncorrected Ubar = 1, pressure gradient = 0.00415738
smoothSolver:  Solving for omega, Initial residual = 7.91522e-06, Final residual = 7.91522e-06, No Iterations 0
smoothSolver:  Solving for k, Initial residual = 1.96738e-05, Final residual = 7.85665e-06, No Iterations 2
ExecutionTime = 8.93931 s  ClockTime = 9 s

Time = 3423s

smoothSolver:  Solving for Ux, Initial residual = 3.8874e-06, Final residual = 3.8874e-06, No Iterations 0
smoothSolver:  Solving for Uy, Initial residual = 0.000110194, Final residual = 9.35856e-06, No Iterations 4
Pressure gradient source: uncorrected Ubar = 1, pressure gradient = 0.00415738
GAMG:  Solving for p, Initial residual = 7.05858e-05, Final residual = 6.13278e-06, No Iterations 7
time step continuity errors : sum local = 2.05192e-10, global = -2.70409e-18, cumulative = -1.39178e-15
Pressure gradient source: uncorrected Ubar = 1, pressure gradient = 0.00415744
smoothSolver:  Solving for omega, Initial residual = 7.91527e-06, Final residual = 7.91527e-06, No Iterations 0
smoothSolver:  Solving for k, Initial residual = 1.96669e-05, Final residual = 7.85398e-06, No Iterations 2
ExecutionTime = 8.94187 s  ClockTime = 9 s

Time = 3424s

smoothSolver:  Solving for Ux, Initial residual = 3.86367e-06, Final residual = 3.86367e-06, No Iterations 0
smoothSolver:  Solving for Uy, Initial residual = 0.000109406, Final residual = 9.22875e-06, No Iterations 4
Pressure gradient source: uncorrected Ubar = 1, pressure gradient = 0.00415744
GAMG:  Solving for p, Initial residual = 7.02584e-05, Final residual = 5.95575e-06, No Iterations 7
time step continuity errors : sum local = 1.9922e-10, global = -4.36525e-18, cumulative = -1.39615e-15
Pressure gradient source: uncorrected Ubar = 1, pressure gradient = 0.0041575
smoothSolver:  Solving for omega, Initial residual = 7.91532e-06, Final residual = 7.91532e-06, No Iterations 0
smoothSolver:  Solving for k, Initial residual = 1.96596e-05, Final residual = 7.85119e-06, No Iterations 2
ExecutionTime = 8.9446 s  ClockTime = 9 s

Time = 3425s

smoothSolver:  Solving for Ux, Initial residual = 3.8399e-06, Final residual = 3.8399e-06, No Iterations 0
smoothSolver:  Solving for Uy, Initial residual = 0.00010863, Final residual = 9.10411e-06, No Iterations 4
Pressure gradient source: uncorrected Ubar = 1, pressure gradient = 0.0041575
GAMG:  Solving for p, Initial residual = 6.99189e-05, Final residual = 5.76103e-06, No Iterations 7
time step continuity errors : sum local = 1.92615e-10, global = -1.24249e-17, cumulative = -1.40857e-15
Pressure gradient source: uncorrected Ubar = 1, pressure gradient = 0.00415757
smoothSolver:  Solving for omega, Initial residual = 7.91537e-06, Final residual = 7.91537e-06, No Iterations 0
smoothSolver:  Solving for k, Initial residual = 1.96521e-05, Final residual = 7.84828e-06, No Iterations 2
ExecutionTime = 8.94719 s  ClockTime = 9 s

Time = 3426s

smoothSolver:  Solving for Ux, Initial residual = 3.81607e-06, Final residual = 3.81607e-06, No Iterations 0
smoothSolver:  Solving for Uy, Initial residual = 0.000107881, Final residual = 8.98491e-06, No Iterations 4
Pressure gradient source: uncorrected Ubar = 1, pressure gradient = 0.00415757
GAMG:  Solving for p, Initial residual = 6.95666e-05, Final residual = 6.04636e-06, No Iterations 5
time step continuity errors : sum local = 1.97498e-10, global = 1.62364e-18, cumulative = -1.40695e-15
Pressure gradient source: uncorrected Ubar = 1, pressure gradient = 0.00415763
smoothSolver:  Solving for omega, Initial residual = 7.91541e-06, Final residual = 7.91541e-06, No Iterations 0
smoothSolver:  Solving for k, Initial residual = 1.96443e-05, Final residual = 7.84525e-06, No Iterations 2
ExecutionTime = 8.94965 s  ClockTime = 9 s

Time = 3427s

smoothSolver:  Solving for Ux, Initial residual = 3.79284e-06, Final residual = 3.79284e-06, No Iterations 0
smoothSolver:  Solving for Uy, Initial residual = 0.000107839, Final residual = 8.94501e-06, No Iterations 4
Pressure gradient source: uncorrected Ubar = 1, pressure gradient = 0.00415763
GAMG:  Solving for p, Initial residual = 6.97258e-05, Final residual = 5.52524e-06, No Iterations 7
time step continuity errors : sum local = 1.83318e-10, global = -4.11644e-18, cumulative = -1.41107e-15
Pressure gradient source: uncorrected Ubar = 1, pressure gradient = 0.0041577
smoothSolver:  Solving for omega, Initial residual = 7.91547e-06, Final residual = 7.91547e-06, No Iterations 0
smoothSolver:  Solving for k, Initial residual = 1.96362e-05, Final residual = 7.8421e-06, No Iterations 2
ExecutionTime = 8.95222 s  ClockTime = 9 s

Time = 3428s

smoothSolver:  Solving for Ux, Initial residual = 3.76981e-06, Final residual = 3.76981e-06, No Iterations 0
smoothSolver:  Solving for Uy, Initial residual = 0.000106236, Final residual = 8.74055e-06, No Iterations 4
Pressure gradient source: uncorrected Ubar = 1, pressure gradient = 0.0041577
GAMG:  Solving for p, Initial residual = 6.88605e-05, Final residual = 5.07385e-06, No Iterations 5
time step continuity errors : sum local = 1.65999e-10, global = -1.93272e-18, cumulative = -1.413e-15
Pressure gradient source: uncorrected Ubar = 1, pressure gradient = 0.00415776
smoothSolver:  Solving for omega, Initial residual = 7.91552e-06, Final residual = 7.91552e-06, No Iterations 0
smoothSolver:  Solving for k, Initial residual = 1.96278e-05, Final residual = 7.83884e-06, No Iterations 2
ExecutionTime = 8.95467 s  ClockTime = 9 s

Time = 3429s

smoothSolver:  Solving for Ux, Initial residual = 3.74672e-06, Final residual = 3.74672e-06, No Iterations 0
smoothSolver:  Solving for Uy, Initial residual = 0.000106783, Final residual = 8.81679e-06, No Iterations 4
Pressure gradient source: uncorrected Ubar = 1, pressure gradient = 0.00415776
GAMG:  Solving for p, Initial residual = 6.85918e-05, Final residual = 6.53319e-06, No Iterations 5
time step continuity errors : sum local = 2.09489e-10, global = 2.94193e-18, cumulative = -1.41006e-15
Pressure gradient source: uncorrected Ubar = 1, pressure gradient = 0.00415782
smoothSolver:  Solving for omega, Initial residual = 7.91557e-06, Final residual = 7.91557e-06, No Iterations 0
smoothSolver:  Solving for k, Initial residual = 1.96191e-05, Final residual = 7.83546e-06, No Iterations 2
ExecutionTime = 8.95713 s  ClockTime = 9 s

Time = 3430s

smoothSolver:  Solving for Ux, Initial residual = 3.72358e-06, Final residual = 3.72358e-06, No Iterations 0
smoothSolver:  Solving for Uy, Initial residual = 0.000103747, Final residual = 8.32037e-06, No Iterations 4
Pressure gradient source: uncorrected Ubar = 1, pressure gradient = 0.00415782
GAMG:  Solving for p, Initial residual = 6.89007e-05, Final residual = 6.62816e-06, No Iterations 3
time step continuity errors : sum local = 2.13675e-10, global = 2.98171e-18, cumulative = -1.40708e-15
Pressure gradient source: uncorrected Ubar = 1, pressure gradient = 0.00415789
smoothSolver:  Solving for omega, Initial residual = 7.91562e-06, Final residual = 7.91562e-06, No Iterations 0
smoothSolver:  Solving for k, Initial residual = 1.96101e-05, Final residual = 7.83196e-06, No Iterations 2
ExecutionTime = 8.95948 s  ClockTime = 9 s

Time = 3431s

smoothSolver:  Solving for Ux, Initial residual = 3.70076e-06, Final residual = 3.70076e-06, No Iterations 0
smoothSolver:  Solving for Uy, Initial residual = 0.000104962, Final residual = 8.56668e-06, No Iterations 4
Pressure gradient source: uncorrected Ubar = 1, pressure gradient = 0.00415789
GAMG:  Solving for p, Initial residual = 6.77174e-05, Final residual = 6.23117e-06, No Iterations 3
time step continuity errors : sum local = 1.99829e-10, global = 1.86424e-18, cumulative = -1.40521e-15
Pressure gradient source: uncorrected Ubar = 1, pressure gradient = 0.00415795
smoothSolver:  Solving for omega, Initial residual = 7.91567e-06, Final residual = 7.91567e-06, No Iterations 0
smoothSolver:  Solving for k, Initial residual = 1.96009e-05, Final residual = 7.82835e-06, No Iterations 2
ExecutionTime = 8.96186 s  ClockTime = 9 s

Time = 3432s

smoothSolver:  Solving for Ux, Initial residual = 3.67918e-06, Final residual = 3.67918e-06, No Iterations 0
smoothSolver:  Solving for Uy, Initial residual = 0.000103568, Final residual = 8.38551e-06, No Iterations 4
Pressure gradient source: uncorrected Ubar = 1, pressure gradient = 0.00415795
GAMG:  Solving for p, Initial residual = 6.71401e-05, Final residual = 6.11043e-06, No Iterations 3
time step continuity errors : sum local = 1.95565e-10, global = 2.33711e-18, cumulative = -1.40287e-15
Pressure gradient source: uncorrected Ubar = 1, pressure gradient = 0.00415802
smoothSolver:  Solving for omega, Initial residual = 7.91573e-06, Final residual = 7.91573e-06, No Iterations 0
smoothSolver:  Solving for k, Initial residual = 1.95913e-05, Final residual = 7.82463e-06, No Iterations 2
ExecutionTime = 8.96422 s  ClockTime = 9 s

Time = 3433s

smoothSolver:  Solving for Ux, Initial residual = 3.65825e-06, Final residual = 3.65825e-06, No Iterations 0
smoothSolver:  Solving for Uy, Initial residual = 0.000102175, Final residual = 8.18771e-06, No Iterations 4
Pressure gradient source: uncorrected Ubar = 1, pressure gradient = 0.00415802
GAMG:  Solving for p, Initial residual = 6.6702e-05, Final residual = 5.99e-06, No Iterations 3
time step continuity errors : sum local = 1.91527e-10, global = -1.10822e-18, cumulative = -1.40398e-15
Pressure gradient source: uncorrected Ubar = 1, pressure gradient = 0.00415808
smoothSolver:  Solving for omega, Initial residual = 7.91578e-06, Final residual = 7.91578e-06, No Iterations 0
smoothSolver:  Solving for k, Initial residual = 1.95815e-05, Final residual = 7.82078e-06, No Iterations 2
ExecutionTime = 8.96657 s  ClockTime = 9 s

Time = 3434s

smoothSolver:  Solving for Ux, Initial residual = 3.63741e-06, Final residual = 3.63741e-06, No Iterations 0
smoothSolver:  Solving for Uy, Initial residual = 0.000100849, Final residual = 7.98324e-06, No Iterations 4
Pressure gradient source: uncorrected Ubar = 1, pressure gradient = 0.00415808
GAMG:  Solving for p, Initial residual = 6.64489e-05, Final residual = 5.89572e-06, No Iterations 3
time step continuity errors : sum local = 1.88784e-10, global = -1.0815e-18, cumulative = -1.40506e-15
Pressure gradient source: uncorrected Ubar = 1, pressure gradient = 0.00415814
smoothSolver:  Solving for omega, Initial residual = 7.91584e-06, Final residual = 7.91584e-06, No Iterations 0
smoothSolver:  Solving for k, Initial residual = 1.95713e-05, Final residual = 7.81683e-06, No Iterations 2
ExecutionTime = 8.96896 s  ClockTime = 9 s

Time = 3435s

smoothSolver:  Solving for Ux, Initial residual = 3.61653e-06, Final residual = 3.61653e-06, No Iterations 0
smoothSolver:  Solving for Uy, Initial residual = 9.96257e-05, Final residual = 7.81338e-06, No Iterations 4
Pressure gradient source: uncorrected Ubar = 1, pressure gradient = 0.00415814
GAMG:  Solving for p, Initial residual = 6.61464e-05, Final residual = 5.80517e-06, No Iterations 3
time step continuity errors : sum local = 1.86054e-10, global = -9.89095e-19, cumulative = -1.40605e-15
Pressure gradient source: uncorrected Ubar = 1, pressure gradient = 0.00415821
smoothSolver:  Solving for omega, Initial residual = 7.91589e-06, Final residual = 7.91589e-06, No Iterations 0
smoothSolver:  Solving for k, Initial residual = 1.95609e-05, Final residual = 7.81276e-06, No Iterations 2
ExecutionTime = 8.97131 s  ClockTime = 9 s


SIMPLE solution converged in 3435 iterations

End

