/*---------------------------------------------------------------------------*\
  =========                 |
  \\      /  F ield         | OpenFOAM: The Open Source CFD Toolbox
   \\    /   O peration     | Website:  https://openfoam.org
    \\  /    A nd           | Version:  10
     \\/     M anipulation  |
\*---------------------------------------------------------------------------*/
Build  : 10-e450dce21ea5
Exec   : blockMesh
Date   : Jan 16 2023
Time   : 11:43:08
Host   : "w530-R9YK46P"
PID    : 14297
I/O    : uncollated
Case   : /home/jdmezazeron/gitDanielMezaZ/turbulenceVisualized/Data/SimulationFiles/E14_Re1719
nProcs : 1
sigFpe : Enabling floating point exception trapping (FOAM_SIGFPE).
fileModificationChecking : Monitoring run-time modified files using timeStampMaster (fileModificationSkew 10)
allowSystemOperations : Allowing user-supplied system call operations

// * * * * * * * * * * * * * * * * * * * * * * * * * * * * * * * * * * * * * //
Create time

Reading "blockMeshDict"

Creating block mesh from
    "system/blockMeshDict"
Creating block edges
No non-planar block faces defined
Creating topology blocks
Creating topology patches

Creating block mesh topology

Check topology

	Basic statistics
		Number of internal faces : 0
		Number of boundary faces : 6
		Number of defined boundary faces : 6
		Number of undefined boundary faces : 0
	Checking patch -> block consistency

Creating block offsets
Creating merge list .

Creating polyMesh from blockMesh
Creating patches
Creating cells
Creating points with scale 1
    Block 0 cell size :
        i : 0.5
        j : 0.00921276 .. 0.036851
        k : 2

Detected cyclic patches; ordering boundary faces

Writing polyMesh
----------------
Mesh Information
----------------
  boundingBox: (-1 0 -1) (1 1 1)
  nPoints: 510
  nCells: 200
  nFaces: 854
  nInternalFaces: 346
----------------
Patches
----------------
  patch 0 (start: 346 size: 50) name: inlet
  patch 1 (start: 396 size: 50) name: outlet
  patch 2 (start: 446 size: 4) name: fixedWalls-bottom
  patch 3 (start: 450 size: 4) name: fixedWalls-top
  patch 4 (start: 454 size: 400) name: frontAndBack

End

/*---------------------------------------------------------------------------*\
  =========                 |
  \\      /  F ield         | OpenFOAM: The Open Source CFD Toolbox
   \\    /   O peration     | Website:  https://openfoam.org
    \\  /    A nd           | Version:  10
     \\/     M anipulation  |
\*---------------------------------------------------------------------------*/
Build  : 10-e450dce21ea5
Exec   : simpleFoam
Date   : Jan 16 2023
Time   : 11:43:08
Host   : "w530-R9YK46P"
PID    : 14298
I/O    : uncollated
Case   : /home/jdmezazeron/gitDanielMezaZ/turbulenceVisualized/Data/SimulationFiles/E14_Re1719
nProcs : 1
sigFpe : Enabling floating point exception trapping (FOAM_SIGFPE).
fileModificationChecking : Monitoring run-time modified files using timeStampMaster (fileModificationSkew 10)
allowSystemOperations : Allowing user-supplied system call operations

// * * * * * * * * * * * * * * * * * * * * * * * * * * * * * * * * * * * * * //
Create time

Create mesh for time = 0


SIMPLE: Convergence criteria found
        U: tolerance 0.01
        p: tolerance 0.01
        omega: tolerance 0.0001

Reading field p

Reading field U

Reading/calculating face flux field phi

Selecting viscosity model Newtonian
Selecting turbulence model type RAS
Selecting RAS turbulence model kOmegaSST
Selecting patchDistMethod meshWave
RAS
{
    RASModel        kOmegaSST;
    turbulence      on;
    printCoeffs     on;
    alphaK1         0.85;
    alphaK2         1;
    alphaOmega1     0.5;
    alphaOmega2     0.856;
    gamma1          0.555556;
    gamma2          0.44;
    beta1           0.075;
    beta2           0.0828;
    betaStar        0.09;
    a1              0.31;
    b1              1;
    c1              10;
    F3              false;
}

No MRF models present

--> FOAM Warning : Creating fvModels from "system/fvOptions" rather than constant/fvModels
No fvModels present
--> FOAM Warning : Creating fvConstraints from "system/fvOptions"

Selecting finite volume constraint type meanVelocityForce
    Name: momentumSource
    - selecting all cells
    - selected 200 cell(s) with volume 4
    Initial pressure gradient = 0


Starting time loop

turbulenceFields stressComponents: storing fields:
    R

Time = 1s

smoothSolver:  Solving for Ux, Initial residual = 0, Final residual = 0, No Iterations 0
smoothSolver:  Solving for Uy, Initial residual = 0, Final residual = 0, No Iterations 0
Pressure gradient source: uncorrected Ubar = 0, pressure gradient = 5.16389
GAMG:  Solving for p, Initial residual = 0.99999, Final residual = 0.0923091, No Iterations 2
time step continuity errors : sum local = 5.87645e-17, global = -2.23805e-18, cumulative = -2.23805e-18
Pressure gradient source: uncorrected Ubar = 0.869367, pressure gradient = 0.674577
smoothSolver:  Solving for omega, Initial residual = 0.0332951, Final residual = 0.00309217, No Iterations 1
bounding omega, min: -4.23887 max: 4388.58 average: 172.474
smoothSolver:  Solving for k, Initial residual = 1, Final residual = 0.0673745, No Iterations 1
ExecutionTime = 0.012543 s  ClockTime = 0 s

Time = 2s

smoothSolver:  Solving for Ux, Initial residual = 0.302072, Final residual = 0.0252786, No Iterations 6
smoothSolver:  Solving for Uy, Initial residual = 1, Final residual = 0.0833144, No Iterations 2
Pressure gradient source: uncorrected Ubar = 1.47317, pressure gradient = -4.31885
GAMG:  Solving for p, Initial residual = 1, Final residual = 0.0514183, No Iterations 7
time step continuity errors : sum local = 0.00332897, global = -1.56667e-17, cumulative = -1.79048e-17
Pressure gradient source: uncorrected Ubar = 1.07848, pressure gradient = -0.153589
smoothSolver:  Solving for omega, Initial residual = 0.0827673, Final residual = 0.000784618, No Iterations 1
smoothSolver:  Solving for k, Initial residual = 0.226846, Final residual = 0.0139305, No Iterations 3
ExecutionTime = 0.014827 s  ClockTime = 0 s

Time = 3s

smoothSolver:  Solving for Ux, Initial residual = 0.182041, Final residual = 0.0148775, No Iterations 5
smoothSolver:  Solving for Uy, Initial residual = 0.510484, Final residual = 0.0506252, No Iterations 2
Pressure gradient source: uncorrected Ubar = 0.888787, pressure gradient = 1.2094
GAMG:  Solving for p, Initial residual = 0.182626, Final residual = 0.0156281, No Iterations 5
time step continuity errors : sum local = 0.00286557, global = -1.02864e-17, cumulative = -2.81911e-17
Pressure gradient source: uncorrected Ubar = 0.98454, pressure gradient = 0.0358796
smoothSolver:  Solving for omega, Initial residual = 0.00920745, Final residual = 0.000398973, No Iterations 1
smoothSolver:  Solving for k, Initial residual = 0.0963068, Final residual = 0.00844126, No Iterations 2
ExecutionTime = 0.016922 s  ClockTime = 0 s

Time = 4s

smoothSolver:  Solving for Ux, Initial residual = 0.0653989, Final residual = 0.00460369, No Iterations 4
smoothSolver:  Solving for Uy, Initial residual = 0.360389, Final residual = 0.0166578, No Iterations 3
Pressure gradient source: uncorrected Ubar = 1.01038, pressure gradient = -0.0921129
GAMG:  Solving for p, Initial residual = 0.143268, Final residual = 0.0140341, No Iterations 6
time step continuity errors : sum local = 0.00289165, global = 2.76472e-18, cumulative = -2.54264e-17
Pressure gradient source: uncorrected Ubar = 1.00127, pressure gradient = 0.020231
smoothSolver:  Solving for omega, Initial residual = 0.00877375, Final residual = 0.000241082, No Iterations 1
smoothSolver:  Solving for k, Initial residual = 0.0490085, Final residual = 0.00237092, No Iterations 3
ExecutionTime = 0.019053 s  ClockTime = 0 s

Time = 5s

smoothSolver:  Solving for Ux, Initial residual = 0.0377527, Final residual = 0.0029716, No Iterations 4
smoothSolver:  Solving for Uy, Initial residual = 0.446144, Final residual = 0.0179728, No Iterations 3
Pressure gradient source: uncorrected Ubar = 1.00225, pressure gradient = -0.00777665
GAMG:  Solving for p, Initial residual = 0.169474, Final residual = 0.00975997, No Iterations 5
time step continuity errors : sum local = 0.00116737, global = 2.67662e-18, cumulative = -2.27498e-17
Pressure gradient source: uncorrected Ubar = 1.00029, pressure gradient = 0.016621
smoothSolver:  Solving for omega, Initial residual = 0.0034894, Final residual = 0.000144485, No Iterations 1
smoothSolver:  Solving for k, Initial residual = 0.0336246, Final residual = 0.00206415, No Iterations 3
ExecutionTime = 0.021109 s  ClockTime = 0 s

Time = 6s

smoothSolver:  Solving for Ux, Initial residual = 0.0237929, Final residual = 0.00232175, No Iterations 4
smoothSolver:  Solving for Uy, Initial residual = 0.647184, Final residual = 0.0260265, No Iterations 3
Pressure gradient source: uncorrected Ubar = 1.00193, pressure gradient = -0.00742756
GAMG:  Solving for p, Initial residual = 0.121482, Final residual = 0.00897625, No Iterations 8
time step continuity errors : sum local = 0.000877159, global = 1.08895e-17, cumulative = -1.18603e-17
Pressure gradient source: uncorrected Ubar = 1.00026, pressure gradient = 0.0133244
smoothSolver:  Solving for omega, Initial residual = 0.00233358, Final residual = 9.69778e-05, No Iterations 1
smoothSolver:  Solving for k, Initial residual = 0.0265738, Final residual = 0.00179568, No Iterations 4
ExecutionTime = 0.023209 s  ClockTime = 0 s

Time = 7s

smoothSolver:  Solving for Ux, Initial residual = 0.0172506, Final residual = 0.00127701, No Iterations 5
smoothSolver:  Solving for Uy, Initial residual = 0.807601, Final residual = 0.0320855, No Iterations 3
Pressure gradient source: uncorrected Ubar = 1.00143, pressure gradient = -0.00449173
GAMG:  Solving for p, Initial residual = 0.114119, Final residual = 0.00673855, No Iterations 7
time step continuity errors : sum local = 0.000482878, global = -1.0402e-17, cumulative = -2.22623e-17
Pressure gradient source: uncorrected Ubar = 1.00017, pressure gradient = 0.0112088
smoothSolver:  Solving for omega, Initial residual = 0.00119497, Final residual = 6.23045e-05, No Iterations 1
smoothSolver:  Solving for k, Initial residual = 0.0257603, Final residual = 0.00241362, No Iterations 4
ExecutionTime = 0.025215 s  ClockTime = 0 s

Time = 8s

smoothSolver:  Solving for Ux, Initial residual = 0.0137491, Final residual = 0.00110341, No Iterations 5
smoothSolver:  Solving for Uy, Initial residual = 0.898036, Final residual = 0.0417072, No Iterations 3
Pressure gradient source: uncorrected Ubar = 1.00111, pressure gradient = -0.00266471
GAMG:  Solving for p, Initial residual = 0.113372, Final residual = 0.0071012, No Iterations 4
time step continuity errors : sum local = 0.000485496, global = -3.09028e-18, cumulative = -2.53526e-17
Pressure gradient source: uncorrected Ubar = 1.00012, pressure gradient = 0.00969799
smoothSolver:  Solving for omega, Initial residual = 0.000717528, Final residual = 4.41274e-05, No Iterations 1
smoothSolver:  Solving for k, Initial residual = 0.023988, Final residual = 0.00176727, No Iterations 4
ExecutionTime = 0.027167 s  ClockTime = 0 s

Time = 9s

smoothSolver:  Solving for Ux, Initial residual = 0.011426, Final residual = 0.000980053, No Iterations 5
smoothSolver:  Solving for Uy, Initial residual = 0.795232, Final residual = 0.0374805, No Iterations 3
Pressure gradient source: uncorrected Ubar = 1.00069, pressure gradient = 0.000988814
GAMG:  Solving for p, Initial residual = 0.101028, Final residual = 0.0090504, No Iterations 4
time step continuity errors : sum local = 0.000532168, global = -2.31748e-18, cumulative = -2.76701e-17
Pressure gradient source: uncorrected Ubar = 1.00007, pressure gradient = 0.00880989
smoothSolver:  Solving for omega, Initial residual = 0.000402016, Final residual = 3.03699e-05, No Iterations 1
smoothSolver:  Solving for k, Initial residual = 0.0220635, Final residual = 0.00102957, No Iterations 4
ExecutionTime = 0.029081 s  ClockTime = 0 s

Time = 10s

smoothSolver:  Solving for Ux, Initial residual = 0.0100207, Final residual = 0.000879409, No Iterations 5
smoothSolver:  Solving for Uy, Initial residual = 0.636544, Final residual = 0.0310675, No Iterations 3
Pressure gradient source: uncorrected Ubar = 1.00057, pressure gradient = 0.00150392
GAMG:  Solving for p, Initial residual = 0.0981156, Final residual = 0.00920303, No Iterations 5
time step continuity errors : sum local = 0.000504844, global = -9.01232e-18, cumulative = -3.66824e-17
Pressure gradient source: uncorrected Ubar = 1.00006, pressure gradient = 0.00809896
smoothSolver:  Solving for omega, Initial residual = 0.000235347, Final residual = 2.19628e-05, No Iterations 1
smoothSolver:  Solving for k, Initial residual = 0.0206792, Final residual = 0.00117463, No Iterations 4
ExecutionTime = 0.031229 s  ClockTime = 0 s

Time = 11s

smoothSolver:  Solving for Ux, Initial residual = 0.00880742, Final residual = 0.000803671, No Iterations 5
smoothSolver:  Solving for Uy, Initial residual = 0.575921, Final residual = 0.0251034, No Iterations 3
Pressure gradient source: uncorrected Ubar = 1.00046, pressure gradient = 0.00217852
GAMG:  Solving for p, Initial residual = 0.0897422, Final residual = 0.00693134, No Iterations 6
time step continuity errors : sum local = 0.000351345, global = 1.59844e-17, cumulative = -2.06981e-17
Pressure gradient source: uncorrected Ubar = 1.00004, pressure gradient = 0.00752146
smoothSolver:  Solving for omega, Initial residual = 0.000140699, Final residual = 9.7127e-06, No Iterations 2
smoothSolver:  Solving for k, Initial residual = 0.0190301, Final residual = 0.00186691, No Iterations 4
ExecutionTime = 0.033373 s  ClockTime = 0 s

Time = 12s

smoothSolver:  Solving for Ux, Initial residual = 0.00795337, Final residual = 0.000755472, No Iterations 5
smoothSolver:  Solving for Uy, Initial residual = 0.574447, Final residual = 0.0235536, No Iterations 3
Pressure gradient source: uncorrected Ubar = 1.00029, pressure gradient = 0.0037651
GAMG:  Solving for p, Initial residual = 0.0890879, Final residual = 0.00598699, No Iterations 6
time step continuity errors : sum local = 0.000255197, global = -7.44034e-18, cumulative = -2.81384e-17
Pressure gradient source: uncorrected Ubar = 1.00003, pressure gradient = 0.00718868
smoothSolver:  Solving for omega, Initial residual = 8.65516e-05, Final residual = 5.51817e-06, No Iterations 2
smoothSolver:  Solving for k, Initial residual = 0.0167385, Final residual = 0.00145378, No Iterations 4
ExecutionTime = 0.035527 s  ClockTime = 0 s

Time = 13s

smoothSolver:  Solving for Ux, Initial residual = 0.00729367, Final residual = 0.000717846, No Iterations 5
smoothSolver:  Solving for Uy, Initial residual = 0.581766, Final residual = 0.0229688, No Iterations 3
Pressure gradient source: uncorrected Ubar = 1.00029, pressure gradient = 0.00337932
GAMG:  Solving for p, Initial residual = 0.0901392, Final residual = 0.00859711, No Iterations 5
time step continuity errors : sum local = 0.000308114, global = 9.29026e-18, cumulative = -1.88481e-17
Pressure gradient source: uncorrected Ubar = 1.00002, pressure gradient = 0.00686664
smoothSolver:  Solving for omega, Initial residual = 5.30321e-05, Final residual = 8.52678e-06, No Iterations 1
smoothSolver:  Solving for k, Initial residual = 0.0151546, Final residual = 0.00135813, No Iterations 4
ExecutionTime = 0.037714 s  ClockTime = 0 s

Time = 14s

smoothSolver:  Solving for Ux, Initial residual = 0.00665635, Final residual = 0.00045157, No Iterations 6
smoothSolver:  Solving for Uy, Initial residual = 0.569153, Final residual = 0.0565373, No Iterations 2
Pressure gradient source: uncorrected Ubar = 1.00031, pressure gradient = 0.00274114
GAMG:  Solving for p, Initial residual = 0.0905708, Final residual = 0.00763506, No Iterations 6
time step continuity errors : sum local = 0.000233685, global = -5.81912e-18, cumulative = -2.46673e-17
Pressure gradient source: uncorrected Ubar = 1.00003, pressure gradient = 0.00645645
smoothSolver:  Solving for omega, Initial residual = 3.83092e-05, Final residual = 8.18105e-06, No Iterations 1
smoothSolver:  Solving for k, Initial residual = 0.0136227, Final residual = 0.00091952, No Iterations 5
ExecutionTime = 0.039794 s  ClockTime = 0 s

Time = 15s

smoothSolver:  Solving for Ux, Initial residual = 0.00612974, Final residual = 0.000432802, No Iterations 6
smoothSolver:  Solving for Uy, Initial residual = 0.509218, Final residual = 0.0494586, No Iterations 2
Pressure gradient source: uncorrected Ubar = 1.00023, pressure gradient = 0.0034005
GAMG:  Solving for p, Initial residual = 0.0911482, Final residual = 0.00637191, No Iterations 6
time step continuity errors : sum local = 0.000171691, global = -5.37866e-19, cumulative = -2.52051e-17
Pressure gradient source: uncorrected Ubar = 1.00002, pressure gradient = 0.00616236
smoothSolver:  Solving for omega, Initial residual = 2.72148e-05, Final residual = 8.50611e-06, No Iterations 1
smoothSolver:  Solving for k, Initial residual = 0.0120541, Final residual = 0.000774382, No Iterations 5
ExecutionTime = 0.041874 s  ClockTime = 0 s

Time = 16s

smoothSolver:  Solving for Ux, Initial residual = 0.00574903, Final residual = 0.000417509, No Iterations 6
smoothSolver:  Solving for Uy, Initial residual = 0.457271, Final residual = 0.0455624, No Iterations 2
Pressure gradient source: uncorrected Ubar = 1.00013, pressure gradient = 0.00439636
GAMG:  Solving for p, Initial residual = 0.0906699, Final residual = 0.00640068, No Iterations 6
time step continuity errors : sum local = 0.000156304, global = 3.93108e-18, cumulative = -2.1274e-17
Pressure gradient source: uncorrected Ubar = 1.00001, pressure gradient = 0.00602279
smoothSolver:  Solving for omega, Initial residual = 1.91697e-05, Final residual = 7.12496e-06, No Iterations 1
smoothSolver:  Solving for k, Initial residual = 0.0103705, Final residual = 0.000914195, No Iterations 4
ExecutionTime = 0.04386 s  ClockTime = 0 s

Time = 17s

smoothSolver:  Solving for Ux, Initial residual = 0.00540626, Final residual = 0.000404051, No Iterations 6
smoothSolver:  Solving for Uy, Initial residual = 0.425649, Final residual = 0.0159141, No Iterations 3
Pressure gradient source: uncorrected Ubar = 1.00015, pressure gradient = 0.00401942
GAMG:  Solving for p, Initial residual = 0.0873916, Final residual = 0.00830351, No Iterations 4
time step continuity errors : sum local = 0.000177622, global = -1.3489e-17, cumulative = -3.4763e-17
Pressure gradient source: uncorrected Ubar = 1.00001, pressure gradient = 0.0058523
smoothSolver:  Solving for omega, Initial residual = 1.60879e-05, Final residual = 6.85799e-06, No Iterations 1
smoothSolver:  Solving for k, Initial residual = 0.00897114, Final residual = 0.000822994, No Iterations 4
ExecutionTime = 0.045786 s  ClockTime = 0 s

Time = 18s

smoothSolver:  Solving for Ux, Initial residual = 0.00510637, Final residual = 0.000390165, No Iterations 6
smoothSolver:  Solving for Uy, Initial residual = 0.462515, Final residual = 0.0188557, No Iterations 3
Pressure gradient source: uncorrected Ubar = 1.0001, pressure gradient = 0.00446108
GAMG:  Solving for p, Initial residual = 0.0905429, Final residual = 0.00614316, No Iterations 6
time step continuity errors : sum local = 0.000109287, global = 1.19406e-17, cumulative = -2.28224e-17
Pressure gradient source: uncorrected Ubar = 1.00001, pressure gradient = 0.00575047
smoothSolver:  Solving for omega, Initial residual = 1.54863e-05, Final residual = 6.94736e-06, No Iterations 1
smoothSolver:  Solving for k, Initial residual = 0.00795354, Final residual = 0.000513236, No Iterations 5
ExecutionTime = 0.048013 s  ClockTime = 0 s

Time = 19s

smoothSolver:  Solving for Ux, Initial residual = 0.00484283, Final residual = 0.00037818, No Iterations 6
smoothSolver:  Solving for Uy, Initial residual = 0.497431, Final residual = 0.0198357, No Iterations 3
Pressure gradient source: uncorrected Ubar = 1.00007, pressure gradient = 0.00474088
GAMG:  Solving for p, Initial residual = 0.0886519, Final residual = 0.00650898, No Iterations 4
time step continuity errors : sum local = 0.000108951, global = -3.55584e-18, cumulative = -2.63783e-17
Pressure gradient source: uncorrected Ubar = 1, pressure gradient = 0.0056885
smoothSolver:  Solving for omega, Initial residual = 1.4171e-05, Final residual = 6.61554e-06, No Iterations 1
smoothSolver:  Solving for k, Initial residual = 0.00696216, Final residual = 0.000517543, No Iterations 5
ExecutionTime = 0.050127 s  ClockTime = 0 s

Time = 20s

smoothSolver:  Solving for Ux, Initial residual = 0.00463103, Final residual = 0.000367154, No Iterations 6
smoothSolver:  Solving for Uy, Initial residual = 0.560622, Final residual = 0.0234056, No Iterations 3
Pressure gradient source: uncorrected Ubar = 1.00007, pressure gradient = 0.00473245
GAMG:  Solving for p, Initial residual = 0.0911411, Final residual = 0.00662889, No Iterations 4
time step continuity errors : sum local = 9.84179e-05, global = -1.23976e-17, cumulative = -3.87759e-17
Pressure gradient source: uncorrected Ubar = 1, pressure gradient = 0.00562401
smoothSolver:  Solving for omega, Initial residual = 1.23262e-05, Final residual = 6.01884e-06, No Iterations 1
smoothSolver:  Solving for k, Initial residual = 0.00593484, Final residual = 0.000399876, No Iterations 5
ExecutionTime = 0.05225 s  ClockTime = 0 s

Time = 21s

smoothSolver:  Solving for Ux, Initial residual = 0.00442758, Final residual = 0.000355413, No Iterations 6
smoothSolver:  Solving for Uy, Initial residual = 0.580303, Final residual = 0.0249016, No Iterations 3
Pressure gradient source: uncorrected Ubar = 1.00006, pressure gradient = 0.00478193
GAMG:  Solving for p, Initial residual = 0.0915208, Final residual = 0.00603113, No Iterations 4
time step continuity errors : sum local = 7.93871e-05, global = -4.76882e-18, cumulative = -4.35447e-17
Pressure gradient source: uncorrected Ubar = 1, pressure gradient = 0.00556786
smoothSolver:  Solving for omega, Initial residual = 1.10635e-05, Final residual = 5.80206e-06, No Iterations 1
smoothSolver:  Solving for k, Initial residual = 0.0050302, Final residual = 0.000445431, No Iterations 4
ExecutionTime = 0.054305 s  ClockTime = 0 s

Time = 22s

smoothSolver:  Solving for Ux, Initial residual = 0.00420953, Final residual = 0.000342031, No Iterations 6
smoothSolver:  Solving for Uy, Initial residual = 0.574005, Final residual = 0.0240832, No Iterations 3
Pressure gradient source: uncorrected Ubar = 1.00004, pressure gradient = 0.00500765
GAMG:  Solving for p, Initial residual = 0.0912055, Final residual = 0.00541947, No Iterations 4
time step continuity errors : sum local = 6.29288e-05, global = 5.49386e-18, cumulative = -3.80508e-17
Pressure gradient source: uncorrected Ubar = 1, pressure gradient = 0.00554459
smoothSolver:  Solving for omega, Initial residual = 1.01858e-05, Final residual = 5.17894e-06, No Iterations 1
smoothSolver:  Solving for k, Initial residual = 0.00464796, Final residual = 0.000460849, No Iterations 4
ExecutionTime = 0.056333 s  ClockTime = 0 s

Time = 23s

smoothSolver:  Solving for Ux, Initial residual = 0.00400037, Final residual = 0.000329712, No Iterations 6
smoothSolver:  Solving for Uy, Initial residual = 0.577461, Final residual = 0.0247923, No Iterations 3
Pressure gradient source: uncorrected Ubar = 1.00004, pressure gradient = 0.00502241
GAMG:  Solving for p, Initial residual = 0.0876597, Final residual = 0.00467752, No Iterations 4
time step continuity errors : sum local = 4.84741e-05, global = 7.94369e-18, cumulative = -3.01071e-17
Pressure gradient source: uncorrected Ubar = 1, pressure gradient = 0.00552196
smoothSolver:  Solving for omega, Initial residual = 9.38739e-06, Final residual = 9.38739e-06, No Iterations 0
smoothSolver:  Solving for k, Initial residual = 0.00418528, Final residual = 0.000264808, No Iterations 5
ExecutionTime = 0.058343 s  ClockTime = 0 s

Time = 24s

smoothSolver:  Solving for Ux, Initial residual = 0.00376607, Final residual = 0.000315241, No Iterations 6
smoothSolver:  Solving for Uy, Initial residual = 0.56253, Final residual = 0.0238369, No Iterations 3
Pressure gradient source: uncorrected Ubar = 1.00004, pressure gradient = 0.00501178
GAMG:  Solving for p, Initial residual = 0.0844485, Final residual = 0.00377892, No Iterations 4
time step continuity errors : sum local = 3.5161e-05, global = 6.74281e-18, cumulative = -2.33643e-17
Pressure gradient source: uncorrected Ubar = 1, pressure gradient = 0.00549729
smoothSolver:  Solving for omega, Initial residual = 1.04195e-05, Final residual = 5.67162e-06, No Iterations 1
smoothSolver:  Solving for k, Initial residual = 0.00393063, Final residual = 0.000230806, No Iterations 5
ExecutionTime = 0.060336 s  ClockTime = 0 s

Time = 25s

smoothSolver:  Solving for Ux, Initial residual = 0.00360084, Final residual = 0.000304873, No Iterations 6
smoothSolver:  Solving for Uy, Initial residual = 0.531893, Final residual = 0.0223213, No Iterations 3
Pressure gradient source: uncorrected Ubar = 1.00002, pressure gradient = 0.00525491
GAMG:  Solving for p, Initial residual = 0.0826585, Final residual = 0.00774848, No Iterations 3
time step continuity errors : sum local = 6.24578e-05, global = -4.99061e-18, cumulative = -2.83549e-17
Pressure gradient source: uncorrected Ubar = 1, pressure gradient = 0.00550407
smoothSolver:  Solving for omega, Initial residual = 9.20649e-06, Final residual = 9.20649e-06, No Iterations 0
smoothSolver:  Solving for k, Initial residual = 0.00360507, Final residual = 0.000335006, No Iterations 4
ExecutionTime = 0.062292 s  ClockTime = 0 s

Time = 26s

smoothSolver:  Solving for Ux, Initial residual = 0.00338914, Final residual = 0.000289985, No Iterations 6
smoothSolver:  Solving for Uy, Initial residual = 0.512813, Final residual = 0.0214258, No Iterations 3
Pressure gradient source: uncorrected Ubar = 1.00002, pressure gradient = 0.00515353
GAMG:  Solving for p, Initial residual = 0.0820502, Final residual = 0.00753898, No Iterations 3
time step continuity errors : sum local = 5.26242e-05, global = -7.33954e-18, cumulative = -3.56945e-17
Pressure gradient source: uncorrected Ubar = 1, pressure gradient = 0.00549341
smoothSolver:  Solving for omega, Initial residual = 1.01529e-05, Final residual = 5.55184e-06, No Iterations 1
smoothSolver:  Solving for k, Initial residual = 0.00350271, Final residual = 0.000341021, No Iterations 4
ExecutionTime = 0.064692 s  ClockTime = 0 s

Time = 27s

smoothSolver:  Solving for Ux, Initial residual = 0.00324108, Final residual = 0.000280226, No Iterations 6
smoothSolver:  Solving for Uy, Initial residual = 0.472656, Final residual = 0.0194045, No Iterations 3
Pressure gradient source: uncorrected Ubar = 1.00001, pressure gradient = 0.00533388
GAMG:  Solving for p, Initial residual = 0.0833259, Final residual = 0.0074233, No Iterations 3
time step continuity errors : sum local = 4.42487e-05, global = 1.58692e-18, cumulative = -3.41076e-17
Pressure gradient source: uncorrected Ubar = 0.999999, pressure gradient = 0.00550458
smoothSolver:  Solving for omega, Initial residual = 9.00477e-06, Final residual = 9.00477e-06, No Iterations 0
smoothSolver:  Solving for k, Initial residual = 0.00326311, Final residual = 0.000299462, No Iterations 4
ExecutionTime = 0.066961 s  ClockTime = 0 s

Time = 28s

smoothSolver:  Solving for Ux, Initial residual = 0.0030444, Final residual = 0.000266076, No Iterations 6
smoothSolver:  Solving for Uy, Initial residual = 0.445161, Final residual = 0.0182296, No Iterations 3
Pressure gradient source: uncorrected Ubar = 1.00002, pressure gradient = 0.00523711
GAMG:  Solving for p, Initial residual = 0.0831853, Final residual = 0.00727625, No Iterations 3
time step continuity errors : sum local = 3.73144e-05, global = 4.62342e-18, cumulative = -2.94841e-17
Pressure gradient source: uncorrected Ubar = 1, pressure gradient = 0.00549848
smoothSolver:  Solving for omega, Initial residual = 9.99206e-06, Final residual = 9.99206e-06, No Iterations 0
smoothSolver:  Solving for k, Initial residual = 0.00328673, Final residual = 0.000216198, No Iterations 5
ExecutionTime = 0.069026 s  ClockTime = 0 s

Time = 29s

smoothSolver:  Solving for Ux, Initial residual = 0.00285515, Final residual = 0.000252185, No Iterations 6
smoothSolver:  Solving for Uy, Initial residual = 0.427505, Final residual = 0.0169913, No Iterations 3
Pressure gradient source: uncorrected Ubar = 1.00002, pressure gradient = 0.00527586
GAMG:  Solving for p, Initial residual = 0.0831324, Final residual = 0.0071636, No Iterations 3
time step continuity errors : sum local = 3.18247e-05, global = 2.89135e-18, cumulative = -2.65928e-17
Pressure gradient source: uncorrected Ubar = 1, pressure gradient = 0.00549559
smoothSolver:  Solving for omega, Initial residual = 1.09551e-05, Final residual = 5.60461e-06, No Iterations 1
smoothSolver:  Solving for k, Initial residual = 0.00303745, Final residual = 0.00018572, No Iterations 5
ExecutionTime = 0.071068 s  ClockTime = 0 s

Time = 30s

smoothSolver:  Solving for Ux, Initial residual = 0.00273724, Final residual = 0.000243452, No Iterations 6
smoothSolver:  Solving for Uy, Initial residual = 0.428719, Final residual = 0.0167495, No Iterations 3
Pressure gradient source: uncorrected Ubar = 1, pressure gradient = 0.00544255
GAMG:  Solving for p, Initial residual = 0.0822581, Final residual = 0.00752373, No Iterations 3
time step continuity errors : sum local = 2.86604e-05, global = -6.28138e-18, cumulative = -3.28742e-17
Pressure gradient source: uncorrected Ubar = 0.999999, pressure gradient = 0.00551277
smoothSolver:  Solving for omega, Initial residual = 9.20043e-06, Final residual = 9.20043e-06, No Iterations 0
smoothSolver:  Solving for k, Initial residual = 0.00273612, Final residual = 0.000251261, No Iterations 4
ExecutionTime = 0.073 s  ClockTime = 0 s

Time = 31s

smoothSolver:  Solving for Ux, Initial residual = 0.0025757, Final residual = 0.000230053, No Iterations 6
smoothSolver:  Solving for Uy, Initial residual = 0.429202, Final residual = 0.0165945, No Iterations 3
Pressure gradient source: uncorrected Ubar = 1.00001, pressure gradient = 0.00534105
GAMG:  Solving for p, Initial residual = 0.0821288, Final residual = 0.00751488, No Iterations 3
time step continuity errors : sum local = 2.46119e-05, global = 2.68404e-20, cumulative = -3.28473e-17
Pressure gradient source: uncorrected Ubar = 1, pressure gradient = 0.00551171
smoothSolver:  Solving for omega, Initial residual = 1.00127e-05, Final residual = 5.40422e-06, No Iterations 1
smoothSolver:  Solving for k, Initial residual = 0.00263037, Final residual = 0.000169527, No Iterations 5
ExecutionTime = 0.074929 s  ClockTime = 0 s

Time = 32s

smoothSolver:  Solving for Ux, Initial residual = 0.00251235, Final residual = 0.000222195, No Iterations 6
smoothSolver:  Solving for Uy, Initial residual = 0.443073, Final residual = 0.0176516, No Iterations 3
Pressure gradient source: uncorrected Ubar = 1, pressure gradient = 0.00549807
GAMG:  Solving for p, Initial residual = 0.084184, Final residual = 0.00739766, No Iterations 3
time step continuity errors : sum local = 2.06083e-05, global = -4.76631e-18, cumulative = -3.76136e-17
Pressure gradient source: uncorrected Ubar = 0.999999, pressure gradient = 0.00552935
smoothSolver:  Solving for omega, Initial residual = 8.69625e-06, Final residual = 8.69625e-06, No Iterations 0
smoothSolver:  Solving for k, Initial residual = 0.00237563, Final residual = 0.000146773, No Iterations 5
ExecutionTime = 0.076843 s  ClockTime = 0 s

Time = 33s

smoothSolver:  Solving for Ux, Initial residual = 0.00238701, Final residual = 0.000209217, No Iterations 6
smoothSolver:  Solving for Uy, Initial residual = 0.452116, Final residual = 0.017765, No Iterations 3
Pressure gradient source: uncorrected Ubar = 1.00001, pressure gradient = 0.00538204
GAMG:  Solving for p, Initial residual = 0.0838766, Final residual = 0.00773049, No Iterations 3
time step continuity errors : sum local = 1.84267e-05, global = 6.71284e-18, cumulative = -3.09008e-17
Pressure gradient source: uncorrected Ubar = 1, pressure gradient = 0.00552702
smoothSolver:  Solving for omega, Initial residual = 9.57532e-06, Final residual = 9.57532e-06, No Iterations 0
smoothSolver:  Solving for k, Initial residual = 0.00236881, Final residual = 0.000151174, No Iterations 5
ExecutionTime = 0.07877 s  ClockTime = 0 s

Time = 34s

smoothSolver:  Solving for Ux, Initial residual = 0.00226723, Final residual = 0.00019693, No Iterations 6
smoothSolver:  Solving for Uy, Initial residual = 0.450633, Final residual = 0.0180953, No Iterations 3
Pressure gradient source: uncorrected Ubar = 1.00001, pressure gradient = 0.0054352
GAMG:  Solving for p, Initial residual = 0.0852899, Final residual = 0.00819226, No Iterations 3
time step continuity errors : sum local = 1.67763e-05, global = -4.12664e-18, cumulative = -3.50274e-17
Pressure gradient source: uncorrected Ubar = 1, pressure gradient = 0.00552999
smoothSolver:  Solving for omega, Initial residual = 1.04323e-05, Final residual = 5.53454e-06, No Iterations 1
smoothSolver:  Solving for k, Initial residual = 0.00212345, Final residual = 0.000203375, No Iterations 4
ExecutionTime = 0.080792 s  ClockTime = 0 s

Time = 35s

smoothSolver:  Solving for Ux, Initial residual = 0.0022171, Final residual = 0.000191047, No Iterations 6
smoothSolver:  Solving for Uy, Initial residual = 0.435866, Final residual = 0.0168592, No Iterations 3
Pressure gradient source: uncorrected Ubar = 0.999994, pressure gradient = 0.0056255
GAMG:  Solving for p, Initial residual = 0.0837031, Final residual = 0.00359696, No Iterations 4
time step continuity errors : sum local = 6.87326e-06, global = -4.49589e-18, cumulative = -3.95233e-17
Pressure gradient source: uncorrected Ubar = 0.999998, pressure gradient = 0.00555624
smoothSolver:  Solving for omega, Initial residual = 8.50039e-06, Final residual = 8.50039e-06, No Iterations 0
smoothSolver:  Solving for k, Initial residual = 0.00193165, Final residual = 0.000122373, No Iterations 5
ExecutionTime = 0.082967 s  ClockTime = 0 s

Time = 36s

smoothSolver:  Solving for Ux, Initial residual = 0.00209991, Final residual = 0.000179265, No Iterations 6
smoothSolver:  Solving for Uy, Initial residual = 0.408922, Final residual = 0.0157659, No Iterations 3
Pressure gradient source: uncorrected Ubar = 1.00001, pressure gradient = 0.00543435
GAMG:  Solving for p, Initial residual = 0.080871, Final residual = 0.0045536, No Iterations 4
time step continuity errors : sum local = 7.77038e-06, global = 5.68116e-18, cumulative = -3.38422e-17
Pressure gradient source: uncorrected Ubar = 1, pressure gradient = 0.00555165
smoothSolver:  Solving for omega, Initial residual = 9.17782e-06, Final residual = 9.17782e-06, No Iterations 0
smoothSolver:  Solving for k, Initial residual = 0.00197761, Final residual = 0.000138606, No Iterations 5
ExecutionTime = 0.085052 s  ClockTime = 0 s

Time = 37s

smoothSolver:  Solving for Ux, Initial residual = 0.0019918, Final residual = 0.000168115, No Iterations 6
smoothSolver:  Solving for Uy, Initial residual = 0.403159, Final residual = 0.0155946, No Iterations 3
Pressure gradient source: uncorrected Ubar = 1.00001, pressure gradient = 0.00544959
GAMG:  Solving for p, Initial residual = 0.0799928, Final residual = 0.0049201, No Iterations 4
time step continuity errors : sum local = 7.50306e-06, global = -5.93712e-18, cumulative = -3.97793e-17
Pressure gradient source: uncorrected Ubar = 1, pressure gradient = 0.00554787
smoothSolver:  Solving for omega, Initial residual = 9.95751e-06, Final residual = 9.95751e-06, No Iterations 0
smoothSolver:  Solving for k, Initial residual = 0.00197779, Final residual = 0.000166144, No Iterations 4
ExecutionTime = 0.087093 s  ClockTime = 0 s

Time = 38s

smoothSolver:  Solving for Ux, Initial residual = 0.00188769, Final residual = 0.000158089, No Iterations 6
smoothSolver:  Solving for Uy, Initial residual = 0.395647, Final residual = 0.0153892, No Iterations 3
Pressure gradient source: uncorrected Ubar = 1, pressure gradient = 0.00551878
GAMG:  Solving for p, Initial residual = 0.0761141, Final residual = 0.00480913, No Iterations 4
time step continuity errors : sum local = 6.56641e-06, global = 4.67567e-19, cumulative = -3.93117e-17
Pressure gradient source: uncorrected Ubar = 1, pressure gradient = 0.00555231
smoothSolver:  Solving for omega, Initial residual = 1.07168e-05, Final residual = 5.38061e-06, No Iterations 1
smoothSolver:  Solving for k, Initial residual = 0.00178623, Final residual = 0.000104442, No Iterations 5
ExecutionTime = 0.089103 s  ClockTime = 0 s

Time = 39s

smoothSolver:  Solving for Ux, Initial residual = 0.00184824, Final residual = 0.000153842, No Iterations 6
smoothSolver:  Solving for Uy, Initial residual = 0.406523, Final residual = 0.0159073, No Iterations 3
Pressure gradient source: uncorrected Ubar = 0.999989, pressure gradient = 0.0057163
GAMG:  Solving for p, Initial residual = 0.0797426, Final residual = 0.00510229, No Iterations 4
time step continuity errors : sum local = 6.18264e-06, global = -1.32193e-18, cumulative = -4.06337e-17
Pressure gradient source: uncorrected Ubar = 0.999998, pressure gradient = 0.00558107
smoothSolver:  Solving for omega, Initial residual = 8.65427e-06, Final residual = 8.65427e-06, No Iterations 0
smoothSolver:  Solving for k, Initial residual = 0.00160564, Final residual = 0.000119927, No Iterations 5
ExecutionTime = 0.091071 s  ClockTime = 0 s

Time = 40s

smoothSolver:  Solving for Ux, Initial residual = 0.00174497, Final residual = 0.000143941, No Iterations 6
smoothSolver:  Solving for Uy, Initial residual = 0.407638, Final residual = 0.0165511, No Iterations 3
Pressure gradient source: uncorrected Ubar = 1.00001, pressure gradient = 0.0055004
GAMG:  Solving for p, Initial residual = 0.0753147, Final residual = 0.00494335, No Iterations 4
time step continuity errors : sum local = 5.30279e-06, global = -1.51512e-17, cumulative = -5.57849e-17
Pressure gradient source: uncorrected Ubar = 1, pressure gradient = 0.00557601
smoothSolver:  Solving for omega, Initial residual = 9.16772e-06, Final residual = 9.16772e-06, No Iterations 0
smoothSolver:  Solving for k, Initial residual = 0.00168394, Final residual = 0.000108697, No Iterations 5
ExecutionTime = 0.092995 s  ClockTime = 0 s

Time = 41s

smoothSolver:  Solving for Ux, Initial residual = 0.00165247, Final residual = 0.000135139, No Iterations 6
smoothSolver:  Solving for Uy, Initial residual = 0.40748, Final residual = 0.0172884, No Iterations 3
Pressure gradient source: uncorrected Ubar = 1, pressure gradient = 0.00557486
GAMG:  Solving for p, Initial residual = 0.069774, Final residual = 0.00384752, No Iterations 4
time step continuity errors : sum local = 3.74068e-06, global = 9.50186e-19, cumulative = -5.48347e-17
Pressure gradient source: uncorrected Ubar = 1, pressure gradient = 0.00558023
smoothSolver:  Solving for omega, Initial residual = 9.80289e-06, Final residual = 9.80289e-06, No Iterations 0
smoothSolver:  Solving for k, Initial residual = 0.0018016, Final residual = 0.000174525, No Iterations 4
ExecutionTime = 0.094922 s  ClockTime = 0 s

Time = 42s

smoothSolver:  Solving for Ux, Initial residual = 0.00156459, Final residual = 0.000126748, No Iterations 6
smoothSolver:  Solving for Uy, Initial residual = 0.399782, Final residual = 0.0162491, No Iterations 3
Pressure gradient source: uncorrected Ubar = 1, pressure gradient = 0.00557024
GAMG:  Solving for p, Initial residual = 0.0694307, Final residual = 0.00644315, No Iterations 3
time step continuity errors : sum local = 5.57295e-06, global = 9.96079e-18, cumulative = -4.48739e-17
Pressure gradient source: uncorrected Ubar = 1, pressure gradient = 0.00558212
smoothSolver:  Solving for omega, Initial residual = 1.04199e-05, Final residual = 5.4979e-06, No Iterations 1
smoothSolver:  Solving for k, Initial residual = 0.00155086, Final residual = 0.000103978, No Iterations 5
ExecutionTime = 0.096929 s  ClockTime = 0 s

Time = 43s

smoothSolver:  Solving for Ux, Initial residual = 0.00154193, Final residual = 0.000124443, No Iterations 6
smoothSolver:  Solving for Uy, Initial residual = 0.400329, Final residual = 0.0166548, No Iterations 3
Pressure gradient source: uncorrected Ubar = 0.99999, pressure gradient = 0.00573282
GAMG:  Solving for p, Initial residual = 0.0631226, Final residual = 0.00615935, No Iterations 3
time step continuity errors : sum local = 4.74419e-06, global = -9.72441e-18, cumulative = -5.45983e-17
Pressure gradient source: uncorrected Ubar = 0.999999, pressure gradient = 0.00560441
smoothSolver:  Solving for omega, Initial residual = 8.37682e-06, Final residual = 8.37682e-06, No Iterations 0
smoothSolver:  Solving for k, Initial residual = 0.0013568, Final residual = 9.08897e-05, No Iterations 5
ExecutionTime = 0.098972 s  ClockTime = 0 s

Time = 44s

smoothSolver:  Solving for Ux, Initial residual = 0.00145989, Final residual = 0.000116882, No Iterations 6
smoothSolver:  Solving for Uy, Initial residual = 0.368649, Final residual = 0.0149559, No Iterations 3
Pressure gradient source: uncorrected Ubar = 1, pressure gradient = 0.00557243
GAMG:  Solving for p, Initial residual = 0.0579314, Final residual = 0.00241649, No Iterations 4
time step continuity errors : sum local = 1.68252e-06, global = -8.72477e-19, cumulative = -5.54708e-17
Pressure gradient source: uncorrected Ubar = 1, pressure gradient = 0.00560142
smoothSolver:  Solving for omega, Initial residual = 8.80716e-06, Final residual = 8.80716e-06, No Iterations 0
smoothSolver:  Solving for k, Initial residual = 0.00151588, Final residual = 0.000112091, No Iterations 5
ExecutionTime = 0.101105 s  ClockTime = 0 s

Time = 45s

smoothSolver:  Solving for Ux, Initial residual = 0.00138596, Final residual = 0.000109898, No Iterations 6
smoothSolver:  Solving for Uy, Initial residual = 0.346984, Final residual = 0.0137997, No Iterations 3
Pressure gradient source: uncorrected Ubar = 1, pressure gradient = 0.00559871
GAMG:  Solving for p, Initial residual = 0.0553269, Final residual = 0.00495522, No Iterations 3
time step continuity errors : sum local = 3.23146e-06, global = 2.27608e-18, cumulative = -5.31947e-17
Pressure gradient source: uncorrected Ubar = 1, pressure gradient = 0.00560133
smoothSolver:  Solving for omega, Initial residual = 9.33714e-06, Final residual = 9.33714e-06, No Iterations 0
smoothSolver:  Solving for k, Initial residual = 0.00165019, Final residual = 0.00014171, No Iterations 5
ExecutionTime = 0.103123 s  ClockTime = 0 s

Time = 46s

smoothSolver:  Solving for Ux, Initial residual = 0.00130934, Final residual = 0.000103016, No Iterations 6
smoothSolver:  Solving for Uy, Initial residual = 0.341307, Final residual = 0.013666, No Iterations 3
Pressure gradient source: uncorrected Ubar = 1, pressure gradient = 0.0055923
GAMG:  Solving for p, Initial residual = 0.0535998, Final residual = 0.00414149, No Iterations 3
time step continuity errors : sum local = 2.46686e-06, global = -2.84586e-18, cumulative = -5.60406e-17
Pressure gradient source: uncorrected Ubar = 1, pressure gradient = 0.00559954
smoothSolver:  Solving for omega, Initial residual = 9.82448e-06, Final residual = 9.82448e-06, No Iterations 0
smoothSolver:  Solving for k, Initial residual = 0.00176939, Final residual = 0.000136778, No Iterations 5
ExecutionTime = 0.105058 s  ClockTime = 0 s

Time = 47s

smoothSolver:  Solving for Ux, Initial residual = 0.00123746, Final residual = 9.65076e-05, No Iterations 6
smoothSolver:  Solving for Uy, Initial residual = 0.317339, Final residual = 0.0146737, No Iterations 3
Pressure gradient source: uncorrected Ubar = 1, pressure gradient = 0.00559069
GAMG:  Solving for p, Initial residual = 0.0558935, Final residual = 0.00455827, No Iterations 3
time step continuity errors : sum local = 2.50626e-06, global = -1.63667e-18, cumulative = -5.76772e-17
Pressure gradient source: uncorrected Ubar = 1, pressure gradient = 0.00559703
smoothSolver:  Solving for omega, Initial residual = 1.02795e-05, Final residual = 5.48993e-06, No Iterations 1
smoothSolver:  Solving for k, Initial residual = 0.00148396, Final residual = 8.69863e-05, No Iterations 5
ExecutionTime = 0.106965 s  ClockTime = 0 s

Time = 48s

smoothSolver:  Solving for Ux, Initial residual = 0.00123259, Final residual = 9.62576e-05, No Iterations 6
smoothSolver:  Solving for Uy, Initial residual = 0.290164, Final residual = 0.0112605, No Iterations 3
Pressure gradient source: uncorrected Ubar = 0.999985, pressure gradient = 0.0058245
GAMG:  Solving for p, Initial residual = 0.0558255, Final residual = 0.00452571, No Iterations 3
time step continuity errors : sum local = 2.23307e-06, global = 3.08083e-18, cumulative = -5.45964e-17
Pressure gradient source: uncorrected Ubar = 0.999998, pressure gradient = 0.00562516
smoothSolver:  Solving for omega, Initial residual = 8.13891e-06, Final residual = 8.13891e-06, No Iterations 0
smoothSolver:  Solving for k, Initial residual = 0.00130924, Final residual = 0.000107309, No Iterations 5
ExecutionTime = 0.108885 s  ClockTime = 0 s

Time = 49s

smoothSolver:  Solving for Ux, Initial residual = 0.00117148, Final residual = 9.0981e-05, No Iterations 6
smoothSolver:  Solving for Uy, Initial residual = 0.288118, Final residual = 0.0128642, No Iterations 3
Pressure gradient source: uncorrected Ubar = 1, pressure gradient = 0.00561878
GAMG:  Solving for p, Initial residual = 0.052244, Final residual = 0.00351443, No Iterations 3
time step continuity errors : sum local = 1.57041e-06, global = 3.54608e-18, cumulative = -5.10503e-17
Pressure gradient source: uncorrected Ubar = 1, pressure gradient = 0.00562181
smoothSolver:  Solving for omega, Initial residual = 8.39142e-06, Final residual = 8.39142e-06, No Iterations 0
smoothSolver:  Solving for k, Initial residual = 0.00145802, Final residual = 0.000126668, No Iterations 5
ExecutionTime = 0.110789 s  ClockTime = 0 s

Time = 50s

smoothSolver:  Solving for Ux, Initial residual = 0.00111309, Final residual = 8.59044e-05, No Iterations 6
smoothSolver:  Solving for Uy, Initial residual = 0.286559, Final residual = 0.0147548, No Iterations 3
Pressure gradient source: uncorrected Ubar = 1, pressure gradient = 0.00562837
GAMG:  Solving for p, Initial residual = 0.0460701, Final residual = 0.00335975, No Iterations 3
time step continuity errors : sum local = 1.41328e-06, global = 1.81809e-18, cumulative = -4.92322e-17
Pressure gradient source: uncorrected Ubar = 1, pressure gradient = 0.0056196
smoothSolver:  Solving for omega, Initial residual = 8.67238e-06, Final residual = 8.67238e-06, No Iterations 0
smoothSolver:  Solving for k, Initial residual = 0.00159744, Final residual = 0.000109612, No Iterations 5
ExecutionTime = 0.112733 s  ClockTime = 0 s

Time = 51s

smoothSolver:  Solving for Ux, Initial residual = 0.00106096, Final residual = 8.12483e-05, No Iterations 6
smoothSolver:  Solving for Uy, Initial residual = 0.245567, Final residual = 0.0123042, No Iterations 3
Pressure gradient source: uncorrected Ubar = 1, pressure gradient = 0.00561186
GAMG:  Solving for p, Initial residual = 0.0507228, Final residual = 0.00403163, No Iterations 5
time step continuity errors : sum local = 1.58859e-06, global = 5.28169e-18, cumulative = -4.39506e-17
Pressure gradient source: uncorrected Ubar = 1, pressure gradient = 0.00561501
smoothSolver:  Solving for omega, Initial residual = 8.99008e-06, Final residual = 8.99008e-06, No Iterations 0
smoothSolver:  Solving for k, Initial residual = 0.00173252, Final residual = 0.000101761, No Iterations 5
ExecutionTime = 0.114779 s  ClockTime = 0 s

Time = 52s

smoothSolver:  Solving for Ux, Initial residual = 0.00100874, Final residual = 7.66853e-05, No Iterations 6
smoothSolver:  Solving for Uy, Initial residual = 0.290281, Final residual = 0.0161112, No Iterations 3
Pressure gradient source: uncorrected Ubar = 1, pressure gradient = 0.00561002
GAMG:  Solving for p, Initial residual = 0.0590942, Final residual = 0.00385151, No Iterations 6
time step continuity errors : sum local = 1.52853e-06, global = -1.08984e-18, cumulative = -4.50404e-17
Pressure gradient source: uncorrected Ubar = 1, pressure gradient = 0.00561036
smoothSolver:  Solving for omega, Initial residual = 9.30189e-06, Final residual = 9.30189e-06, No Iterations 0
smoothSolver:  Solving for k, Initial residual = 0.00185398, Final residual = 0.000117736, No Iterations 5
ExecutionTime = 0.116918 s  ClockTime = 0 s

Time = 53s

smoothSolver:  Solving for Ux, Initial residual = 0.000957193, Final residual = 7.23088e-05, No Iterations 6
smoothSolver:  Solving for Uy, Initial residual = 0.2639, Final residual = 0.0158653, No Iterations 3
Pressure gradient source: uncorrected Ubar = 1, pressure gradient = 0.00560517
GAMG:  Solving for p, Initial residual = 0.0490176, Final residual = 0.00345305, No Iterations 5
time step continuity errors : sum local = 1.28423e-06, global = -5.70121e-18, cumulative = -5.07416e-17
Pressure gradient source: uncorrected Ubar = 1, pressure gradient = 0.00560532
smoothSolver:  Solving for omega, Initial residual = 9.58242e-06, Final residual = 9.58242e-06, No Iterations 0
smoothSolver:  Solving for k, Initial residual = 0.00202262, Final residual = 0.000170388, No Iterations 5
ExecutionTime = 0.119032 s  ClockTime = 0 s

Time = 54s

smoothSolver:  Solving for Ux, Initial residual = 0.000899764, Final residual = 6.7532e-05, No Iterations 6
smoothSolver:  Solving for Uy, Initial residual = 0.235137, Final residual = 0.0131536, No Iterations 3
Pressure gradient source: uncorrected Ubar = 1, pressure gradient = 0.00557567
GAMG:  Solving for p, Initial residual = 0.047239, Final residual = 0.00388228, No Iterations 6
time step continuity errors : sum local = 1.25871e-06, global = -6.42374e-18, cumulative = -5.71653e-17
Pressure gradient source: uncorrected Ubar = 1, pressure gradient = 0.00559671
smoothSolver:  Solving for omega, Initial residual = 9.82612e-06, Final residual = 9.82612e-06, No Iterations 0
smoothSolver:  Solving for k, Initial residual = 0.00214281, Final residual = 0.000163598, No Iterations 5
ExecutionTime = 0.121105 s  ClockTime = 0 s

Time = 55s

smoothSolver:  Solving for Ux, Initial residual = 0.000845571, Final residual = 6.30714e-05, No Iterations 6
smoothSolver:  Solving for Uy, Initial residual = 0.195612, Final residual = 0.0110181, No Iterations 3
Pressure gradient source: uncorrected Ubar = 1, pressure gradient = 0.00557354
GAMG:  Solving for p, Initial residual = 0.0435983, Final residual = 0.00284743, No Iterations 6
time step continuity errors : sum local = 8.73917e-07, global = -4.59763e-18, cumulative = -6.1763e-17
Pressure gradient source: uncorrected Ubar = 1, pressure gradient = 0.00558869
smoothSolver:  Solving for omega, Initial residual = 1.00547e-05, Final residual = 5.24602e-06, No Iterations 1
smoothSolver:  Solving for k, Initial residual = 0.00181276, Final residual = 0.000123913, No Iterations 5
ExecutionTime = 0.123178 s  ClockTime = 0 s

Time = 56s

smoothSolver:  Solving for Ux, Initial residual = 0.000859264, Final residual = 6.42771e-05, No Iterations 6
smoothSolver:  Solving for Uy, Initial residual = 0.269604, Final residual = 0.0126033, No Iterations 3
Pressure gradient source: uncorrected Ubar = 0.999985, pressure gradient = 0.00582352
GAMG:  Solving for p, Initial residual = 0.0817269, Final residual = 0.00722517, No Iterations 3
time step continuity errors : sum local = 1.99036e-06, global = 4.72049e-18, cumulative = -5.70425e-17
Pressure gradient source: uncorrected Ubar = 0.999998, pressure gradient = 0.00561453
smoothSolver:  Solving for omega, Initial residual = 7.90553e-06, Final residual = 7.90553e-06, No Iterations 0
smoothSolver:  Solving for k, Initial residual = 0.00156555, Final residual = 0.000116366, No Iterations 5
ExecutionTime = 0.125126 s  ClockTime = 0 s

Time = 57s

smoothSolver:  Solving for Ux, Initial residual = 0.000816422, Final residual = 6.10894e-05, No Iterations 6
smoothSolver:  Solving for Uy, Initial residual = 0.338452, Final residual = 0.014402, No Iterations 3
Pressure gradient source: uncorrected Ubar = 1, pressure gradient = 0.00559821
GAMG:  Solving for p, Initial residual = 0.0832295, Final residual = 0.00731832, No Iterations 3
time step continuity errors : sum local = 1.89275e-06, global = 8.49902e-18, cumulative = -4.85435e-17
Pressure gradient source: uncorrected Ubar = 1, pressure gradient = 0.00560712
smoothSolver:  Solving for omega, Initial residual = 8.01156e-06, Final residual = 8.01156e-06, No Iterations 0
smoothSolver:  Solving for k, Initial residual = 0.00166201, Final residual = 0.000114919, No Iterations 5
ExecutionTime = 0.127055 s  ClockTime = 0 s

Time = 58s

smoothSolver:  Solving for Ux, Initial residual = 0.0007754, Final residual = 5.76379e-05, No Iterations 6
smoothSolver:  Solving for Uy, Initial residual = 0.335396, Final residual = 0.0150049, No Iterations 3
Pressure gradient source: uncorrected Ubar = 1, pressure gradient = 0.00560002
GAMG:  Solving for p, Initial residual = 0.0688806, Final residual = 0.00686078, No Iterations 4
time step continuity errors : sum local = 1.72437e-06, global = -3.0109e-18, cumulative = -5.15544e-17
Pressure gradient source: uncorrected Ubar = 1, pressure gradient = 0.0056008
smoothSolver:  Solving for omega, Initial residual = 8.12714e-06, Final residual = 8.12714e-06, No Iterations 0
smoothSolver:  Solving for k, Initial residual = 0.00181131, Final residual = 0.000151329, No Iterations 5
ExecutionTime = 0.129003 s  ClockTime = 0 s

Time = 59s

smoothSolver:  Solving for Ux, Initial residual = 0.000730725, Final residual = 5.41669e-05, No Iterations 6
smoothSolver:  Solving for Uy, Initial residual = 0.260117, Final residual = 0.0246752, No Iterations 2
Pressure gradient source: uncorrected Ubar = 1, pressure gradient = 0.00558878
GAMG:  Solving for p, Initial residual = 0.0552029, Final residual = 0.00461466, No Iterations 3
time step continuity errors : sum local = 1.11822e-06, global = -7.7064e-18, cumulative = -5.92608e-17
Pressure gradient source: uncorrected Ubar = 1, pressure gradient = 0.00559374
smoothSolver:  Solving for omega, Initial residual = 8.23761e-06, Final residual = 8.23761e-06, No Iterations 0
smoothSolver:  Solving for k, Initial residual = 0.0018846, Final residual = 0.000141718, No Iterations 5
ExecutionTime = 0.131051 s  ClockTime = 0 s

Time = 60s

smoothSolver:  Solving for Ux, Initial residual = 0.00069305, Final residual = 5.09733e-05, No Iterations 6
smoothSolver:  Solving for Uy, Initial residual = 0.207416, Final residual = 0.0198689, No Iterations 2
Pressure gradient source: uncorrected Ubar = 1, pressure gradient = 0.0055744
GAMG:  Solving for p, Initial residual = 0.0550861, Final residual = 0.00466861, No Iterations 4
time step continuity errors : sum local = 1.21584e-06, global = 1.26009e-18, cumulative = -5.80007e-17
Pressure gradient source: uncorrected Ubar = 1, pressure gradient = 0.00558566
smoothSolver:  Solving for omega, Initial residual = 8.344e-06, Final residual = 8.344e-06, No Iterations 0
smoothSolver:  Solving for k, Initial residual = 0.00195869, Final residual = 0.000189958, No Iterations 4
ExecutionTime = 0.1331 s  ClockTime = 0 s

Time = 61s

smoothSolver:  Solving for Ux, Initial residual = 0.000655254, Final residual = 4.796e-05, No Iterations 6
smoothSolver:  Solving for Uy, Initial residual = 0.191347, Final residual = 0.00816082, No Iterations 3
Pressure gradient source: uncorrected Ubar = 1, pressure gradient = 0.00557843
GAMG:  Solving for p, Initial residual = 0.0497092, Final residual = 0.00428114, No Iterations 5
time step continuity errors : sum local = 1.06871e-06, global = 7.39479e-19, cumulative = -5.72612e-17
Pressure gradient source: uncorrected Ubar = 1, pressure gradient = 0.00557917
smoothSolver:  Solving for omega, Initial residual = 8.45183e-06, Final residual = 8.45183e-06, No Iterations 0
smoothSolver:  Solving for k, Initial residual = 0.0020943, Final residual = 0.000146379, No Iterations 5
ExecutionTime = 0.135223 s  ClockTime = 0 s

Time = 62s

smoothSolver:  Solving for Ux, Initial residual = 0.000615967, Final residual = 4.49018e-05, No Iterations 6
smoothSolver:  Solving for Uy, Initial residual = 0.127312, Final residual = 0.0123572, No Iterations 2
Pressure gradient source: uncorrected Ubar = 1, pressure gradient = 0.0055678
GAMG:  Solving for p, Initial residual = 0.0432491, Final residual = 0.00366196, No Iterations 5
time step continuity errors : sum local = 9.08693e-07, global = 6.53515e-18, cumulative = -5.0726e-17
Pressure gradient source: uncorrected Ubar = 1, pressure gradient = 0.00557221
smoothSolver:  Solving for omega, Initial residual = 8.55701e-06, Final residual = 8.55701e-06, No Iterations 0
smoothSolver:  Solving for k, Initial residual = 0.00218545, Final residual = 0.000186809, No Iterations 5
ExecutionTime = 0.137286 s  ClockTime = 0 s

Time = 63s

smoothSolver:  Solving for Ux, Initial residual = 0.000571267, Final residual = 4.15432e-05, No Iterations 6
smoothSolver:  Solving for Uy, Initial residual = 0.176897, Final residual = 0.00964914, No Iterations 3
Pressure gradient source: uncorrected Ubar = 1, pressure gradient = 0.00553502
GAMG:  Solving for p, Initial residual = 0.0326225, Final residual = 0.0027568, No Iterations 3
time step continuity errors : sum local = 6.76074e-07, global = -5.67963e-18, cumulative = -5.64057e-17
Pressure gradient source: uncorrected Ubar = 1, pressure gradient = 0.00556191
smoothSolver:  Solving for omega, Initial residual = 8.65683e-06, Final residual = 8.65683e-06, No Iterations 0
smoothSolver:  Solving for k, Initial residual = 0.00224485, Final residual = 0.000175353, No Iterations 5
ExecutionTime = 0.139269 s  ClockTime = 0 s

Time = 64s

smoothSolver:  Solving for Ux, Initial residual = 0.000530292, Final residual = 3.82439e-05, No Iterations 6
smoothSolver:  Solving for Uy, Initial residual = 0.186402, Final residual = 0.0120329, No Iterations 3
Pressure gradient source: uncorrected Ubar = 1, pressure gradient = 0.00553123
GAMG:  Solving for p, Initial residual = 0.0490856, Final residual = 0.00443204, No Iterations 4
time step continuity errors : sum local = 1.1497e-06, global = 5.42878e-18, cumulative = -5.09769e-17
Pressure gradient source: uncorrected Ubar = 1, pressure gradient = 0.00555249
smoothSolver:  Solving for omega, Initial residual = 8.75624e-06, Final residual = 8.75624e-06, No Iterations 0
smoothSolver:  Solving for k, Initial residual = 0.00228289, Final residual = 0.000203006, No Iterations 4
ExecutionTime = 0.14119 s  ClockTime = 0 s

Time = 65s

smoothSolver:  Solving for Ux, Initial residual = 0.000497721, Final residual = 3.56024e-05, No Iterations 6
smoothSolver:  Solving for Uy, Initial residual = 0.138299, Final residual = 0.00631779, No Iterations 3
Pressure gradient source: uncorrected Ubar = 1, pressure gradient = 0.0055386
GAMG:  Solving for p, Initial residual = 0.0436888, Final residual = 0.00408978, No Iterations 5
time step continuity errors : sum local = 1.03957e-06, global = -4.14153e-18, cumulative = -5.51184e-17
Pressure gradient source: uncorrected Ubar = 1, pressure gradient = 0.00554546
smoothSolver:  Solving for omega, Initial residual = 8.82939e-06, Final residual = 8.82939e-06, No Iterations 0
smoothSolver:  Solving for k, Initial residual = 0.00238938, Final residual = 0.000198848, No Iterations 5
ExecutionTime = 0.143152 s  ClockTime = 0 s

Time = 66s

smoothSolver:  Solving for Ux, Initial residual = 0.000458314, Final residual = 3.24838e-05, No Iterations 6
smoothSolver:  Solving for Uy, Initial residual = 0.131589, Final residual = 0.0111477, No Iterations 2
Pressure gradient source: uncorrected Ubar = 1, pressure gradient = 0.00550581
GAMG:  Solving for p, Initial residual = 0.0372124, Final residual = 0.00287429, No Iterations 3
time step continuity errors : sum local = 7.22642e-07, global = 3.39647e-18, cumulative = -5.1722e-17
Pressure gradient source: uncorrected Ubar = 1, pressure gradient = 0.00553521
smoothSolver:  Solving for omega, Initial residual = 8.90472e-06, Final residual = 8.90472e-06, No Iterations 0
smoothSolver:  Solving for k, Initial residual = 0.0024317, Final residual = 0.000192311, No Iterations 5
ExecutionTime = 0.145068 s  ClockTime = 0 s

Time = 67s

smoothSolver:  Solving for Ux, Initial residual = 0.000418979, Final residual = 2.94019e-05, No Iterations 6
smoothSolver:  Solving for Uy, Initial residual = 0.129584, Final residual = 0.0115973, No Iterations 2
Pressure gradient source: uncorrected Ubar = 1, pressure gradient = 0.00549402
GAMG:  Solving for p, Initial residual = 0.0402699, Final residual = 0.00202665, No Iterations 5
time step continuity errors : sum local = 5.34843e-07, global = 5.0315e-18, cumulative = -4.66905e-17
Pressure gradient source: uncorrected Ubar = 1, pressure gradient = 0.00552478
smoothSolver:  Solving for omega, Initial residual = 8.96521e-06, Final residual = 8.96521e-06, No Iterations 0
smoothSolver:  Solving for k, Initial residual = 0.0024678, Final residual = 0.00017291, No Iterations 5
ExecutionTime = 0.147135 s  ClockTime = 0 s

Time = 68s

smoothSolver:  Solving for Ux, Initial residual = 0.000384238, Final residual = 2.66012e-05, No Iterations 6
smoothSolver:  Solving for Uy, Initial residual = 0.130263, Final residual = 0.0061187, No Iterations 3
Pressure gradient source: uncorrected Ubar = 1, pressure gradient = 0.0054843
GAMG:  Solving for p, Initial residual = 0.0367922, Final residual = 0.00302974, No Iterations 5
time step continuity errors : sum local = 7.28583e-07, global = 4.27269e-18, cumulative = -4.24178e-17
Pressure gradient source: uncorrected Ubar = 1, pressure gradient = 0.00551459
smoothSolver:  Solving for omega, Initial residual = 9.00881e-06, Final residual = 9.00881e-06, No Iterations 0
smoothSolver:  Solving for k, Initial residual = 0.0025204, Final residual = 0.000174458, No Iterations 5
ExecutionTime = 0.149304 s  ClockTime = 0 s

Time = 69s

smoothSolver:  Solving for Ux, Initial residual = 0.000346868, Final residual = 2.38705e-05, No Iterations 6
smoothSolver:  Solving for Uy, Initial residual = 0.134937, Final residual = 0.00606132, No Iterations 3
Pressure gradient source: uncorrected Ubar = 1, pressure gradient = 0.00547714
GAMG:  Solving for p, Initial residual = 0.0360973, Final residual = 0.00226968, No Iterations 5
time step continuity errors : sum local = 5.49583e-07, global = -7.24977e-18, cumulative = -4.96675e-17
Pressure gradient source: uncorrected Ubar = 1, pressure gradient = 0.00550503
smoothSolver:  Solving for omega, Initial residual = 9.04519e-06, Final residual = 9.04519e-06, No Iterations 0
smoothSolver:  Solving for k, Initial residual = 0.00252235, Final residual = 0.000164205, No Iterations 5
ExecutionTime = 0.151496 s  ClockTime = 0 s

Time = 70s

smoothSolver:  Solving for Ux, Initial residual = 0.000305817, Final residual = 2.09457e-05, No Iterations 6
smoothSolver:  Solving for Uy, Initial residual = 0.155608, Final residual = 0.00807932, No Iterations 3
Pressure gradient source: uncorrected Ubar = 1, pressure gradient = 0.00546015
GAMG:  Solving for p, Initial residual = 0.043219, Final residual = 0.00287342, No Iterations 5
time step continuity errors : sum local = 7.62617e-07, global = 1.91899e-18, cumulative = -4.77485e-17
Pressure gradient source: uncorrected Ubar = 1, pressure gradient = 0.00549465
smoothSolver:  Solving for omega, Initial residual = 9.08108e-06, Final residual = 9.08108e-06, No Iterations 0
smoothSolver:  Solving for k, Initial residual = 0.00255057, Final residual = 0.000166937, No Iterations 5
ExecutionTime = 0.153596 s  ClockTime = 0 s

Time = 71s

smoothSolver:  Solving for Ux, Initial residual = 0.000269952, Final residual = 1.82344e-05, No Iterations 6
smoothSolver:  Solving for Uy, Initial residual = 0.262015, Final residual = 0.0162676, No Iterations 3
Pressure gradient source: uncorrected Ubar = 1, pressure gradient = 0.00545087
GAMG:  Solving for p, Initial residual = 0.0477853, Final residual = 0.00462335, No Iterations 5
time step continuity errors : sum local = 1.08497e-06, global = -3.00148e-18, cumulative = -5.075e-17
Pressure gradient source: uncorrected Ubar = 1, pressure gradient = 0.00548466
smoothSolver:  Solving for omega, Initial residual = 9.09067e-06, Final residual = 9.09067e-06, No Iterations 0
smoothSolver:  Solving for k, Initial residual = 0.00255388, Final residual = 0.000235041, No Iterations 4
ExecutionTime = 0.15569 s  ClockTime = 0 s

Time = 72s

smoothSolver:  Solving for Ux, Initial residual = 0.000251142, Final residual = 2.44359e-05, No Iterations 5
smoothSolver:  Solving for Uy, Initial residual = 0.128144, Final residual = 0.00602097, No Iterations 3
Pressure gradient source: uncorrected Ubar = 1, pressure gradient = 0.00547371
GAMG:  Solving for p, Initial residual = 0.0268048, Final residual = 0.00231044, No Iterations 5
time step continuity errors : sum local = 5.17973e-07, global = 6.66109e-18, cumulative = -4.40889e-17
Pressure gradient source: uncorrected Ubar = 1, pressure gradient = 0.00547772
smoothSolver:  Solving for omega, Initial residual = 9.09784e-06, Final residual = 9.09784e-06, No Iterations 0
smoothSolver:  Solving for k, Initial residual = 0.00261597, Final residual = 0.000232116, No Iterations 5
ExecutionTime = 0.157707 s  ClockTime = 0 s

Time = 73s

smoothSolver:  Solving for Ux, Initial residual = 0.000230148, Final residual = 2.18601e-05, No Iterations 5
smoothSolver:  Solving for Uy, Initial residual = 0.117953, Final residual = 0.00490335, No Iterations 3
Pressure gradient source: uncorrected Ubar = 1, pressure gradient = 0.00541478
GAMG:  Solving for p, Initial residual = 0.0333444, Final residual = 0.00232214, No Iterations 3
time step continuity errors : sum local = 5.04287e-07, global = 5.74004e-18, cumulative = -3.83489e-17
Pressure gradient source: uncorrected Ubar = 1, pressure gradient = 0.0054639
smoothSolver:  Solving for omega, Initial residual = 9.10104e-06, Final residual = 9.10104e-06, No Iterations 0
smoothSolver:  Solving for k, Initial residual = 0.00262281, Final residual = 0.00022186, No Iterations 5
ExecutionTime = 0.159632 s  ClockTime = 0 s

Time = 74s

smoothSolver:  Solving for Ux, Initial residual = 0.000210586, Final residual = 1.97867e-05, No Iterations 5
smoothSolver:  Solving for Uy, Initial residual = 0.191551, Final residual = 0.00933389, No Iterations 3
Pressure gradient source: uncorrected Ubar = 1, pressure gradient = 0.00541967
GAMG:  Solving for p, Initial residual = 0.0509781, Final residual = 0.00342458, No Iterations 3
time step continuity errors : sum local = 7.59539e-07, global = 5.26759e-18, cumulative = -3.30813e-17
Pressure gradient source: uncorrected Ubar = 1, pressure gradient = 0.00545294
smoothSolver:  Solving for omega, Initial residual = 9.09782e-06, Final residual = 9.09782e-06, No Iterations 0
smoothSolver:  Solving for k, Initial residual = 0.00258041, Final residual = 0.000152818, No Iterations 5
ExecutionTime = 0.161521 s  ClockTime = 0 s

Time = 75s

smoothSolver:  Solving for Ux, Initial residual = 0.000200078, Final residual = 1.8836e-05, No Iterations 5
smoothSolver:  Solving for Uy, Initial residual = 0.25611, Final residual = 0.0119569, No Iterations 3
Pressure gradient source: uncorrected Ubar = 1, pressure gradient = 0.0054129
GAMG:  Solving for p, Initial residual = 0.0641217, Final residual = 0.00393797, No Iterations 3
time step continuity errors : sum local = 8.51557e-07, global = 1.10847e-17, cumulative = -2.19966e-17
Pressure gradient source: uncorrected Ubar = 1, pressure gradient = 0.00544271
smoothSolver:  Solving for omega, Initial residual = 9.0843e-06, Final residual = 9.0843e-06, No Iterations 0
smoothSolver:  Solving for k, Initial residual = 0.00260131, Final residual = 0.000168193, No Iterations 5
ExecutionTime = 0.163494 s  ClockTime = 0 s

Time = 76s

smoothSolver:  Solving for Ux, Initial residual = 0.000193385, Final residual = 1.83696e-05, No Iterations 5
smoothSolver:  Solving for Uy, Initial residual = 0.166056, Final residual = 0.00808402, No Iterations 3
Pressure gradient source: uncorrected Ubar = 1, pressure gradient = 0.00540149
GAMG:  Solving for p, Initial residual = 0.0387103, Final residual = 0.00361665, No Iterations 3
time step continuity errors : sum local = 7.7668e-07, global = -3.54139e-19, cumulative = -2.23508e-17
Pressure gradient source: uncorrected Ubar = 1, pressure gradient = 0.00543257
smoothSolver:  Solving for omega, Initial residual = 9.06253e-06, Final residual = 9.06253e-06, No Iterations 0
smoothSolver:  Solving for k, Initial residual = 0.00261124, Final residual = 0.000220935, No Iterations 5
ExecutionTime = 0.165547 s  ClockTime = 0 s

Time = 77s

smoothSolver:  Solving for Ux, Initial residual = 0.000178066, Final residual = 1.73852e-05, No Iterations 5
smoothSolver:  Solving for Uy, Initial residual = 0.113632, Final residual = 0.00535157, No Iterations 3
Pressure gradient source: uncorrected Ubar = 1, pressure gradient = 0.00537042
GAMG:  Solving for p, Initial residual = 0.0310616, Final residual = 0.00250015, No Iterations 3
time step continuity errors : sum local = 5.37446e-07, global = -3.62816e-18, cumulative = -2.59789e-17
Pressure gradient source: uncorrected Ubar = 1, pressure gradient = 0.00541991
smoothSolver:  Solving for omega, Initial residual = 9.03215e-06, Final residual = 9.03215e-06, No Iterations 0
smoothSolver:  Solving for k, Initial residual = 0.00255377, Final residual = 0.000185419, No Iterations 5
ExecutionTime = 0.167664 s  ClockTime = 0 s

Time = 78s

smoothSolver:  Solving for Ux, Initial residual = 0.000174003, Final residual = 1.14692e-05, No Iterations 6
smoothSolver:  Solving for Uy, Initial residual = 0.134846, Final residual = 0.00845179, No Iterations 3
Pressure gradient source: uncorrected Ubar = 1.00001, pressure gradient = 0.0053303
GAMG:  Solving for p, Initial residual = 0.043347, Final residual = 0.00282761, No Iterations 5
time step continuity errors : sum local = 5.84257e-07, global = 1.21623e-17, cumulative = -1.38166e-17
Pressure gradient source: uncorrected Ubar = 1, pressure gradient = 0.0054052
smoothSolver:  Solving for omega, Initial residual = 8.99288e-06, Final residual = 8.99288e-06, No Iterations 0
smoothSolver:  Solving for k, Initial residual = 0.00253548, Final residual = 0.000172614, No Iterations 5
ExecutionTime = 0.169747 s  ClockTime = 0 s

Time = 79s

smoothSolver:  Solving for Ux, Initial residual = 0.00016651, Final residual = 1.13069e-05, No Iterations 6
smoothSolver:  Solving for Uy, Initial residual = 0.141148, Final residual = 0.00728533, No Iterations 3
Pressure gradient source: uncorrected Ubar = 1.00001, pressure gradient = 0.00533157
GAMG:  Solving for p, Initial residual = 0.0402672, Final residual = 0.00378658, No Iterations 5
time step continuity errors : sum local = 7.50177e-07, global = 5.89521e-20, cumulative = -1.37577e-17
Pressure gradient source: uncorrected Ubar = 1, pressure gradient = 0.00539292
smoothSolver:  Solving for omega, Initial residual = 8.94782e-06, Final residual = 8.94782e-06, No Iterations 0
smoothSolver:  Solving for k, Initial residual = 0.00252794, Final residual = 0.000187805, No Iterations 5
ExecutionTime = 0.171778 s  ClockTime = 0 s

Time = 80s

smoothSolver:  Solving for Ux, Initial residual = 0.000164696, Final residual = 1.18212e-05, No Iterations 6
smoothSolver:  Solving for Uy, Initial residual = 0.168845, Final residual = 0.00916246, No Iterations 3
Pressure gradient source: uncorrected Ubar = 1, pressure gradient = 0.00532819
GAMG:  Solving for p, Initial residual = 0.0349256, Final residual = 0.00255246, No Iterations 5
time step continuity errors : sum local = 5.01199e-07, global = -3.61895e-18, cumulative = -1.73766e-17
Pressure gradient source: uncorrected Ubar = 1, pressure gradient = 0.00538213
smoothSolver:  Solving for omega, Initial residual = 8.89981e-06, Final residual = 8.89981e-06, No Iterations 0
smoothSolver:  Solving for k, Initial residual = 0.00248516, Final residual = 0.000173762, No Iterations 5
ExecutionTime = 0.173811 s  ClockTime = 0 s

Time = 81s

smoothSolver:  Solving for Ux, Initial residual = 0.000170277, Final residual = 1.30402e-05, No Iterations 6
smoothSolver:  Solving for Uy, Initial residual = 0.123098, Final residual = 0.00568143, No Iterations 3
Pressure gradient source: uncorrected Ubar = 1, pressure gradient = 0.00531637
GAMG:  Solving for p, Initial residual = 0.0312684, Final residual = 0.00172858, No Iterations 3
time step continuity errors : sum local = 3.4479e-07, global = -8.36372e-19, cumulative = -1.8213e-17
Pressure gradient source: uncorrected Ubar = 1, pressure gradient = 0.00537128
smoothSolver:  Solving for omega, Initial residual = 8.84637e-06, Final residual = 8.84637e-06, No Iterations 0
smoothSolver:  Solving for k, Initial residual = 0.00247983, Final residual = 0.000204083, No Iterations 5
ExecutionTime = 0.175784 s  ClockTime = 0 s

Time = 82s

smoothSolver:  Solving for Ux, Initial residual = 0.000175066, Final residual = 1.41178e-05, No Iterations 6
smoothSolver:  Solving for Uy, Initial residual = 0.145052, Final residual = 0.00820473, No Iterations 3
Pressure gradient source: uncorrected Ubar = 1, pressure gradient = 0.00530768
GAMG:  Solving for p, Initial residual = 0.0364507, Final residual = 0.00288608, No Iterations 3
time step continuity errors : sum local = 5.73353e-07, global = -3.91196e-18, cumulative = -2.21249e-17
Pressure gradient source: uncorrected Ubar = 1, pressure gradient = 0.005361
smoothSolver:  Solving for omega, Initial residual = 8.78797e-06, Final residual = 8.78797e-06, No Iterations 0
smoothSolver:  Solving for k, Initial residual = 0.00240088, Final residual = 0.000148848, No Iterations 5
ExecutionTime = 0.177752 s  ClockTime = 0 s

Time = 83s

smoothSolver:  Solving for Ux, Initial residual = 0.000181683, Final residual = 1.5266e-05, No Iterations 6
smoothSolver:  Solving for Uy, Initial residual = 0.188277, Final residual = 0.00720316, No Iterations 3
Pressure gradient source: uncorrected Ubar = 1.00001, pressure gradient = 0.00528699
GAMG:  Solving for p, Initial residual = 0.0441423, Final residual = 0.00333632, No Iterations 3
time step continuity errors : sum local = 6.74235e-07, global = 4.85508e-19, cumulative = -2.16394e-17
Pressure gradient source: uncorrected Ubar = 1, pressure gradient = 0.00534953
smoothSolver:  Solving for omega, Initial residual = 8.73068e-06, Final residual = 8.73068e-06, No Iterations 0
smoothSolver:  Solving for k, Initial residual = 0.00233972, Final residual = 0.000227993, No Iterations 4
ExecutionTime = 0.179837 s  ClockTime = 0 s

Time = 84s

smoothSolver:  Solving for Ux, Initial residual = 0.00018869, Final residual = 1.6465e-05, No Iterations 6
smoothSolver:  Solving for Uy, Initial residual = 0.178394, Final residual = 0.0173904, No Iterations 2
Pressure gradient source: uncorrected Ubar = 1.00001, pressure gradient = 0.00527995
GAMG:  Solving for p, Initial residual = 0.0519589, Final residual = 0.00312766, No Iterations 3
time step continuity errors : sum local = 6.35278e-07, global = -2.76303e-18, cumulative = -2.44025e-17
Pressure gradient source: uncorrected Ubar = 1, pressure gradient = 0.00533873
smoothSolver:  Solving for omega, Initial residual = 8.66999e-06, Final residual = 8.66999e-06, No Iterations 0
smoothSolver:  Solving for k, Initial residual = 0.00234471, Final residual = 0.000164908, No Iterations 5
ExecutionTime = 0.182035 s  ClockTime = 0 s

Time = 85s

smoothSolver:  Solving for Ux, Initial residual = 0.000196776, Final residual = 1.77149e-05, No Iterations 6
smoothSolver:  Solving for Uy, Initial residual = 0.126448, Final residual = 0.0058705, No Iterations 3
Pressure gradient source: uncorrected Ubar = 1.00001, pressure gradient = 0.00526606
GAMG:  Solving for p, Initial residual = 0.0234058, Final residual = 0.00125166, No Iterations 3
time step continuity errors : sum local = 2.47627e-07, global = -6.00284e-18, cumulative = -3.04053e-17
Pressure gradient source: uncorrected Ubar = 1, pressure gradient = 0.00532766
smoothSolver:  Solving for omega, Initial residual = 8.60366e-06, Final residual = 8.60366e-06, No Iterations 0
smoothSolver:  Solving for k, Initial residual = 0.00229286, Final residual = 0.000189528, No Iterations 5
ExecutionTime = 0.184126 s  ClockTime = 0 s

Time = 86s

smoothSolver:  Solving for Ux, Initial residual = 0.000215396, Final residual = 1.90708e-05, No Iterations 6
smoothSolver:  Solving for Uy, Initial residual = 0.140269, Final residual = 0.00844768, No Iterations 3
Pressure gradient source: uncorrected Ubar = 1.00001, pressure gradient = 0.00522935
GAMG:  Solving for p, Initial residual = 0.0373088, Final residual = 0.00368405, No Iterations 4
time step continuity errors : sum local = 7.02504e-07, global = 1.12139e-17, cumulative = -1.91914e-17
Pressure gradient source: uncorrected Ubar = 1, pressure gradient = 0.0053135
smoothSolver:  Solving for omega, Initial residual = 8.53976e-06, Final residual = 8.53976e-06, No Iterations 0
smoothSolver:  Solving for k, Initial residual = 0.00220291, Final residual = 0.000139635, No Iterations 5
ExecutionTime = 0.18619 s  ClockTime = 0 s

Time = 87s

smoothSolver:  Solving for Ux, Initial residual = 0.00023307, Final residual = 2.03792e-05, No Iterations 6
smoothSolver:  Solving for Uy, Initial residual = 0.117872, Final residual = 0.00507082, No Iterations 3
Pressure gradient source: uncorrected Ubar = 1.00001, pressure gradient = 0.00522304
GAMG:  Solving for p, Initial residual = 0.0290565, Final residual = 0.00215933, No Iterations 4
time step continuity errors : sum local = 4.32256e-07, global = 6.20264e-18, cumulative = -1.29888e-17
Pressure gradient source: uncorrected Ubar = 1, pressure gradient = 0.00530049
smoothSolver:  Solving for omega, Initial residual = 8.482e-06, Final residual = 8.482e-06, No Iterations 0
smoothSolver:  Solving for k, Initial residual = 0.00218938, Final residual = 0.000156956, No Iterations 5
ExecutionTime = 0.188237 s  ClockTime = 0 s

Time = 88s

smoothSolver:  Solving for Ux, Initial residual = 0.000249015, Final residual = 2.13808e-05, No Iterations 6
smoothSolver:  Solving for Uy, Initial residual = 0.135751, Final residual = 0.0123881, No Iterations 2
Pressure gradient source: uncorrected Ubar = 1.00001, pressure gradient = 0.00522588
GAMG:  Solving for p, Initial residual = 0.0350465, Final residual = 0.00323618, No Iterations 4
time step continuity errors : sum local = 6.44631e-07, global = -7.95934e-18, cumulative = -2.09481e-17
Pressure gradient source: uncorrected Ubar = 1, pressure gradient = 0.00528978
smoothSolver:  Solving for omega, Initial residual = 8.42531e-06, Final residual = 8.42531e-06, No Iterations 0
smoothSolver:  Solving for k, Initial residual = 0.00209292, Final residual = 0.000126533, No Iterations 5
ExecutionTime = 0.190239 s  ClockTime = 0 s

Time = 89s

smoothSolver:  Solving for Ux, Initial residual = 0.000262905, Final residual = 2.25097e-05, No Iterations 6
smoothSolver:  Solving for Uy, Initial residual = 0.145042, Final residual = 0.00577403, No Iterations 3
Pressure gradient source: uncorrected Ubar = 1.00001, pressure gradient = 0.00520289
GAMG:  Solving for p, Initial residual = 0.0368607, Final residual = 0.00213745, No Iterations 5
time step continuity errors : sum local = 4.13658e-07, global = 6.38399e-18, cumulative = -1.45641e-17
Pressure gradient source: uncorrected Ubar = 1, pressure gradient = 0.00527752
smoothSolver:  Solving for omega, Initial residual = 8.37393e-06, Final residual = 8.37393e-06, No Iterations 0
smoothSolver:  Solving for k, Initial residual = 0.00206535, Final residual = 0.000154072, No Iterations 5
[...]
Pressure gradient source: uncorrected Ubar = 1, pressure gradient = 0.00517332
smoothSolver:  Solving for omega, Initial residual = 7.69203e-06, Final residual = 7.69203e-06, No Iterations 0
smoothSolver:  Solving for k, Initial residual = 8.66825e-05, Final residual = 7.28399e-06, No Iterations 4
ExecutionTime = 0.453632 s  ClockTime = 0 s

Time = 220s

smoothSolver:  Solving for Ux, Initial residual = 2.85768e-05, Final residual = 7.5565e-06, No Iterations 3
smoothSolver:  Solving for Uy, Initial residual = 0.0128502, Final residual = 0.00104311, No Iterations 2
Pressure gradient source: uncorrected Ubar = 1, pressure gradient = 0.00517272
GAMG:  Solving for p, Initial residual = 0.00278157, Final residual = 0.000171439, No Iterations 5
time step continuity errors : sum local = 3.41544e-08, global = -1.71325e-18, cumulative = -4.77184e-17
Pressure gradient source: uncorrected Ubar = 1, pressure gradient = 0.00517307
smoothSolver:  Solving for omega, Initial residual = 7.69148e-06, Final residual = 7.69148e-06, No Iterations 0
smoothSolver:  Solving for k, Initial residual = 9.05066e-05, Final residual = 8.39701e-06, No Iterations 4
ExecutionTime = 0.455601 s  ClockTime = 0 s

Time = 221s

smoothSolver:  Solving for Ux, Initial residual = 2.69061e-05, Final residual = 7.11006e-06, No Iterations 3
smoothSolver:  Solving for Uy, Initial residual = 0.0148932, Final residual = 0.000616556, No Iterations 3
Pressure gradient source: uncorrected Ubar = 1, pressure gradient = 0.00517262
GAMG:  Solving for p, Initial residual = 0.00262723, Final residual = 0.000232278, No Iterations 6
time step continuity errors : sum local = 4.40041e-08, global = -3.0354e-18, cumulative = -5.07538e-17
Pressure gradient source: uncorrected Ubar = 1, pressure gradient = 0.00517284
smoothSolver:  Solving for omega, Initial residual = 7.69094e-06, Final residual = 7.69094e-06, No Iterations 0
smoothSolver:  Solving for k, Initial residual = 9.15345e-05, Final residual = 7.85008e-06, No Iterations 4
ExecutionTime = 0.457576 s  ClockTime = 0 s

Time = 222s

smoothSolver:  Solving for Ux, Initial residual = 2.51954e-05, Final residual = 6.64793e-06, No Iterations 3
smoothSolver:  Solving for Uy, Initial residual = 0.0122803, Final residual = 0.000489341, No Iterations 3
Pressure gradient source: uncorrected Ubar = 1, pressure gradient = 0.0051718
GAMG:  Solving for p, Initial residual = 0.00270135, Final residual = 0.000178845, No Iterations 6
time step continuity errors : sum local = 3.41012e-08, global = -5.30962e-18, cumulative = -5.60635e-17
Pressure gradient source: uncorrected Ubar = 1, pressure gradient = 0.00517253
smoothSolver:  Solving for omega, Initial residual = 7.69045e-06, Final residual = 7.69045e-06, No Iterations 0
smoothSolver:  Solving for k, Initial residual = 9.48665e-05, Final residual = 8.4066e-06, No Iterations 4
ExecutionTime = 0.459566 s  ClockTime = 0 s

Time = 223s

smoothSolver:  Solving for Ux, Initial residual = 2.35579e-05, Final residual = 9.39413e-06, No Iterations 2
smoothSolver:  Solving for Uy, Initial residual = 0.017887, Final residual = 0.000787228, No Iterations 3
Pressure gradient source: uncorrected Ubar = 1, pressure gradient = 0.00517337
GAMG:  Solving for p, Initial residual = 0.00231965, Final residual = 0.000209511, No Iterations 5
time step continuity errors : sum local = 3.89875e-08, global = 4.18625e-18, cumulative = -5.18772e-17
Pressure gradient source: uncorrected Ubar = 1, pressure gradient = 0.00517272
smoothSolver:  Solving for omega, Initial residual = 7.69021e-06, Final residual = 7.69021e-06, No Iterations 0
smoothSolver:  Solving for k, Initial residual = 9.66226e-05, Final residual = 8.21538e-06, No Iterations 4
ExecutionTime = 0.461556 s  ClockTime = 0 s

Time = 224s

smoothSolver:  Solving for Ux, Initial residual = 2.20131e-05, Final residual = 8.79011e-06, No Iterations 2
smoothSolver:  Solving for Uy, Initial residual = 0.0164252, Final residual = 0.00149253, No Iterations 2
Pressure gradient source: uncorrected Ubar = 1, pressure gradient = 0.00517142
GAMG:  Solving for p, Initial residual = 0.00268617, Final residual = 0.000250065, No Iterations 3
time step continuity errors : sum local = 4.78919e-08, global = 6.90903e-18, cumulative = -4.49682e-17
Pressure gradient source: uncorrected Ubar = 1, pressure gradient = 0.00517247
smoothSolver:  Solving for omega, Initial residual = 7.68979e-06, Final residual = 7.68979e-06, No Iterations 0
smoothSolver:  Solving for k, Initial residual = 0.000100473, Final residual = 9.59869e-06, No Iterations 4
ExecutionTime = 0.463507 s  ClockTime = 0 s

Time = 225s

smoothSolver:  Solving for Ux, Initial residual = 2.05206e-05, Final residual = 8.20544e-06, No Iterations 2
smoothSolver:  Solving for Uy, Initial residual = 0.0114803, Final residual = 0.000999766, No Iterations 2
Pressure gradient source: uncorrected Ubar = 1, pressure gradient = 0.00517118
GAMG:  Solving for p, Initial residual = 0.00230515, Final residual = 0.000205411, No Iterations 5
time step continuity errors : sum local = 3.80111e-08, global = 3.94164e-18, cumulative = -4.10265e-17
Pressure gradient source: uncorrected Ubar = 1, pressure gradient = 0.0051722
smoothSolver:  Solving for omega, Initial residual = 7.68952e-06, Final residual = 7.68952e-06, No Iterations 0
smoothSolver:  Solving for k, Initial residual = 9.99661e-05, Final residual = 8.58702e-06, No Iterations 4
ExecutionTime = 0.46552 s  ClockTime = 0 s

Time = 226s

smoothSolver:  Solving for Ux, Initial residual = 1.89853e-05, Final residual = 7.58809e-06, No Iterations 2
smoothSolver:  Solving for Uy, Initial residual = 0.0153898, Final residual = 0.00123116, No Iterations 2
Pressure gradient source: uncorrected Ubar = 1, pressure gradient = 0.00517034
GAMG:  Solving for p, Initial residual = 0.00233462, Final residual = 0.000148079, No Iterations 5
time step continuity errors : sum local = 2.87103e-08, global = 7.24904e-18, cumulative = -3.37775e-17
Pressure gradient source: uncorrected Ubar = 1, pressure gradient = 0.00517182
smoothSolver:  Solving for omega, Initial residual = 7.68915e-06, Final residual = 7.68915e-06, No Iterations 0
smoothSolver:  Solving for k, Initial residual = 0.000102185, Final residual = 9.42729e-06, No Iterations 4
ExecutionTime = 0.467594 s  ClockTime = 0 s

Time = 227s

smoothSolver:  Solving for Ux, Initial residual = 1.75335e-05, Final residual = 7.0005e-06, No Iterations 2
smoothSolver:  Solving for Uy, Initial residual = 0.0112055, Final residual = 0.00111806, No Iterations 2
Pressure gradient source: uncorrected Ubar = 1, pressure gradient = 0.00516996
GAMG:  Solving for p, Initial residual = 0.00234377, Final residual = 0.000170839, No Iterations 6
time step continuity errors : sum local = 3.21702e-08, global = -8.76248e-18, cumulative = -4.254e-17
Pressure gradient source: uncorrected Ubar = 1, pressure gradient = 0.00517142
smoothSolver:  Solving for omega, Initial residual = 7.6889e-06, Final residual = 7.6889e-06, No Iterations 0
smoothSolver:  Solving for k, Initial residual = 0.000102775, Final residual = 8.39404e-06, No Iterations 4
ExecutionTime = 0.469678 s  ClockTime = 0 s

Time = 228s

smoothSolver:  Solving for Ux, Initial residual = 1.6035e-05, Final residual = 9.87973e-06, No Iterations 1
smoothSolver:  Solving for Uy, Initial residual = 0.0100683, Final residual = 0.000380516, No Iterations 3
Pressure gradient source: uncorrected Ubar = 1, pressure gradient = 0.00517134
GAMG:  Solving for p, Initial residual = 0.00294224, Final residual = 0.000248259, No Iterations 6
time step continuity errors : sum local = 4.5797e-08, global = 4.48566e-18, cumulative = -3.80543e-17
Pressure gradient source: uncorrected Ubar = 1, pressure gradient = 0.00517191
smoothSolver:  Solving for omega, Initial residual = 7.68886e-06, Final residual = 7.68886e-06, No Iterations 0
smoothSolver:  Solving for k, Initial residual = 0.000106224, Final residual = 1.02721e-05, No Iterations 4
ExecutionTime = 0.471699 s  ClockTime = 0 s

Time = 229s

smoothSolver:  Solving for Ux, Initial residual = 1.48273e-05, Final residual = 9.17312e-06, No Iterations 1
smoothSolver:  Solving for Uy, Initial residual = 0.0193668, Final residual = 0.00167113, No Iterations 2
Pressure gradient source: uncorrected Ubar = 1, pressure gradient = 0.00516952
GAMG:  Solving for p, Initial residual = 0.0026835, Final residual = 0.000241455, No Iterations 4
time step continuity errors : sum local = 4.84592e-08, global = -1.09167e-17, cumulative = -4.8971e-17
Pressure gradient source: uncorrected Ubar = 1, pressure gradient = 0.00517151
smoothSolver:  Solving for omega, Initial residual = 7.68862e-06, Final residual = 7.68862e-06, No Iterations 0
smoothSolver:  Solving for k, Initial residual = 0.000104186, Final residual = 8.9984e-06, No Iterations 4
ExecutionTime = 0.47359 s  ClockTime = 0 s

Time = 230s

smoothSolver:  Solving for Ux, Initial residual = 1.34477e-05, Final residual = 8.3157e-06, No Iterations 1
smoothSolver:  Solving for Uy, Initial residual = 0.0186214, Final residual = 0.000705106, No Iterations 3
Pressure gradient source: uncorrected Ubar = 1, pressure gradient = 0.00516889
GAMG:  Solving for p, Initial residual = 0.00225082, Final residual = 0.000118142, No Iterations 7
time step continuity errors : sum local = 2.23262e-08, global = 6.89955e-19, cumulative = -4.82811e-17
Pressure gradient source: uncorrected Ubar = 1, pressure gradient = 0.00517101
smoothSolver:  Solving for omega, Initial residual = 7.68867e-06, Final residual = 7.68867e-06, No Iterations 0
smoothSolver:  Solving for k, Initial residual = 0.000105133, Final residual = 9.53768e-06, No Iterations 4
ExecutionTime = 0.475578 s  ClockTime = 0 s

Time = 231s

smoothSolver:  Solving for Ux, Initial residual = 1.21886e-05, Final residual = 7.52278e-06, No Iterations 1
smoothSolver:  Solving for Uy, Initial residual = 0.0133012, Final residual = 0.00109762, No Iterations 2
Pressure gradient source: uncorrected Ubar = 1, pressure gradient = 0.00516859
GAMG:  Solving for p, Initial residual = 0.00238974, Final residual = 0.000182332, No Iterations 5
time step continuity errors : sum local = 3.30771e-08, global = -3.56497e-18, cumulative = -5.1846e-17
Pressure gradient source: uncorrected Ubar = 1, pressure gradient = 0.00517047
smoothSolver:  Solving for omega, Initial residual = 7.68865e-06, Final residual = 7.68865e-06, No Iterations 0
smoothSolver:  Solving for k, Initial residual = 0.000105332, Final residual = 8.60377e-06, No Iterations 4
ExecutionTime = 0.477508 s  ClockTime = 0 s

Time = 232s

smoothSolver:  Solving for Ux, Initial residual = 1.09108e-05, Final residual = 6.69895e-06, No Iterations 1
smoothSolver:  Solving for Uy, Initial residual = 0.0105079, Final residual = 0.00093003, No Iterations 2
Pressure gradient source: uncorrected Ubar = 1, pressure gradient = 0.00516802
GAMG:  Solving for p, Initial residual = 0.00191113, Final residual = 0.000175974, No Iterations 4
time step continuity errors : sum local = 3.28057e-08, global = 4.94518e-18, cumulative = -4.69009e-17
Pressure gradient source: uncorrected Ubar = 1, pressure gradient = 0.00516993
smoothSolver:  Solving for omega, Initial residual = 7.68867e-06, Final residual = 7.68867e-06, No Iterations 0
smoothSolver:  Solving for k, Initial residual = 0.000108202, Final residual = 1.04951e-05, No Iterations 4
ExecutionTime = 0.479497 s  ClockTime = 0 s

Time = 233s

smoothSolver:  Solving for Ux, Initial residual = 9.66835e-06, Final residual = 9.66835e-06, No Iterations 0
smoothSolver:  Solving for Uy, Initial residual = 0.0160326, Final residual = 0.000593819, No Iterations 3
Pressure gradient source: uncorrected Ubar = 1, pressure gradient = 0.00516993
GAMG:  Solving for p, Initial residual = 0.00289427, Final residual = 0.000207103, No Iterations 4
time step continuity errors : sum local = 3.90584e-08, global = 1.16519e-18, cumulative = -4.57357e-17
Pressure gradient source: uncorrected Ubar = 1, pressure gradient = 0.00517096
smoothSolver:  Solving for omega, Initial residual = 7.68869e-06, Final residual = 7.68869e-06, No Iterations 0
smoothSolver:  Solving for k, Initial residual = 0.000105296, Final residual = 9.09327e-06, No Iterations 4
ExecutionTime = 0.4814 s  ClockTime = 0 s

Time = 234s

smoothSolver:  Solving for Ux, Initial residual = 8.93639e-06, Final residual = 8.93639e-06, No Iterations 0
smoothSolver:  Solving for Uy, Initial residual = 0.0181188, Final residual = 0.00070727, No Iterations 3
Pressure gradient source: uncorrected Ubar = 1, pressure gradient = 0.00517096
GAMG:  Solving for p, Initial residual = 0.00237502, Final residual = 0.000150693, No Iterations 4
time step continuity errors : sum local = 2.72203e-08, global = 3.07691e-18, cumulative = -4.26587e-17
Pressure gradient source: uncorrected Ubar = 1, pressure gradient = 0.0051703
smoothSolver:  Solving for omega, Initial residual = 7.68889e-06, Final residual = 7.68889e-06, No Iterations 0
smoothSolver:  Solving for k, Initial residual = 0.000105558, Final residual = 9.59516e-06, No Iterations 4
ExecutionTime = 0.483477 s  ClockTime = 0 s

Time = 235s

smoothSolver:  Solving for Ux, Initial residual = 7.89547e-06, Final residual = 7.89547e-06, No Iterations 0
smoothSolver:  Solving for Uy, Initial residual = 0.0383314, Final residual = 0.0015969, No Iterations 3
Pressure gradient source: uncorrected Ubar = 1, pressure gradient = 0.0051703
GAMG:  Solving for p, Initial residual = 0.00352419, Final residual = 0.000203547, No Iterations 4
time step continuity errors : sum local = 3.74536e-08, global = 7.16731e-18, cumulative = -3.54914e-17
Pressure gradient source: uncorrected Ubar = 1, pressure gradient = 0.00516958
smoothSolver:  Solving for omega, Initial residual = 7.68902e-06, Final residual = 7.68902e-06, No Iterations 0
smoothSolver:  Solving for k, Initial residual = 0.000105112, Final residual = 8.59551e-06, No Iterations 4
ExecutionTime = 0.4855 s  ClockTime = 0 s

Time = 236s

smoothSolver:  Solving for Ux, Initial residual = 6.87165e-06, Final residual = 6.87165e-06, No Iterations 0
smoothSolver:  Solving for Uy, Initial residual = 0.0339527, Final residual = 0.00141776, No Iterations 3
Pressure gradient source: uncorrected Ubar = 1, pressure gradient = 0.00516958
GAMG:  Solving for p, Initial residual = 0.00253769, Final residual = 0.000227045, No Iterations 4
time step continuity errors : sum local = 4.31594e-08, global = -5.15822e-18, cumulative = -4.06497e-17
Pressure gradient source: uncorrected Ubar = 1, pressure gradient = 0.00516887
smoothSolver:  Solving for omega, Initial residual = 7.68912e-06, Final residual = 7.68912e-06, No Iterations 0
smoothSolver:  Solving for k, Initial residual = 0.000107369, Final residual = 1.04135e-05, No Iterations 4
ExecutionTime = 0.487491 s  ClockTime = 0 s

Time = 237s

smoothSolver:  Solving for Ux, Initial residual = 5.88045e-06, Final residual = 5.88045e-06, No Iterations 0
smoothSolver:  Solving for Uy, Initial residual = 0.0411562, Final residual = 0.00159237, No Iterations 3
Pressure gradient source: uncorrected Ubar = 1, pressure gradient = 0.00516887
GAMG:  Solving for p, Initial residual = 0.00332053, Final residual = 0.000142071, No Iterations 6
time step continuity errors : sum local = 2.7857e-08, global = -5.37934e-18, cumulative = -4.6029e-17
Pressure gradient source: uncorrected Ubar = 1, pressure gradient = 0.00516814
smoothSolver:  Solving for omega, Initial residual = 7.68921e-06, Final residual = 7.68921e-06, No Iterations 0
smoothSolver:  Solving for k, Initial residual = 0.000104314, Final residual = 9.01989e-06, No Iterations 4
ExecutionTime = 0.489449 s  ClockTime = 0 s

Time = 238s

smoothSolver:  Solving for Ux, Initial residual = 4.96709e-06, Final residual = 4.96709e-06, No Iterations 0
smoothSolver:  Solving for Uy, Initial residual = 0.0278994, Final residual = 0.00277984, No Iterations 2
Pressure gradient source: uncorrected Ubar = 1, pressure gradient = 0.00516814
GAMG:  Solving for p, Initial residual = 0.00200129, Final residual = 0.000170143, No Iterations 7
time step continuity errors : sum local = 3.13638e-08, global = 8.90085e-18, cumulative = -3.71281e-17
Pressure gradient source: uncorrected Ubar = 1, pressure gradient = 0.00516742
smoothSolver:  Solving for omega, Initial residual = 7.68942e-06, Final residual = 7.68942e-06, No Iterations 0
smoothSolver:  Solving for k, Initial residual = 0.000104518, Final residual = 9.52025e-06, No Iterations 4
ExecutionTime = 0.491425 s  ClockTime = 0 s

Time = 239s

smoothSolver:  Solving for Ux, Initial residual = 4.00544e-06, Final residual = 4.00544e-06, No Iterations 0
smoothSolver:  Solving for Uy, Initial residual = 0.0341243, Final residual = 0.00321063, No Iterations 2
Pressure gradient source: uncorrected Ubar = 1, pressure gradient = 0.00516742
GAMG:  Solving for p, Initial residual = 0.00262536, Final residual = 0.000179887, No Iterations 6
time step continuity errors : sum local = 3.66785e-08, global = 6.84262e-18, cumulative = -3.02855e-17
Pressure gradient source: uncorrected Ubar = 1, pressure gradient = 0.00516669
smoothSolver:  Solving for omega, Initial residual = 7.68947e-06, Final residual = 7.68947e-06, No Iterations 0
smoothSolver:  Solving for k, Initial residual = 0.000103978, Final residual = 8.53746e-06, No Iterations 4
ExecutionTime = 0.493366 s  ClockTime = 0 s

Time = 240s

smoothSolver:  Solving for Ux, Initial residual = 3.49521e-06, Final residual = 3.49521e-06, No Iterations 0
smoothSolver:  Solving for Uy, Initial residual = 0.0158369, Final residual = 0.000589876, No Iterations 3
Pressure gradient source: uncorrected Ubar = 1, pressure gradient = 0.00516669
GAMG:  Solving for p, Initial residual = 0.00124356, Final residual = 8.55681e-05, No Iterations 9
time step continuity errors : sum local = 1.69725e-08, global = -3.82283e-18, cumulative = -3.41083e-17
Pressure gradient source: uncorrected Ubar = 1, pressure gradient = 0.00516598
smoothSolver:  Solving for omega, Initial residual = 7.68971e-06, Final residual = 7.68971e-06, No Iterations 0
smoothSolver:  Solving for k, Initial residual = 0.000106065, Final residual = 1.02888e-05, No Iterations 4
ExecutionTime = 0.495412 s  ClockTime = 0 s

Time = 241s

smoothSolver:  Solving for Ux, Initial residual = 3.1384e-06, Final residual = 3.1384e-06, No Iterations 0
smoothSolver:  Solving for Uy, Initial residual = 0.0195352, Final residual = 0.00184439, No Iterations 2
Pressure gradient source: uncorrected Ubar = 1, pressure gradient = 0.00516598
GAMG:  Solving for p, Initial residual = 0.00187684, Final residual = 0.000166613, No Iterations 6
time step continuity errors : sum local = 3.1729e-08, global = 6.2323e-18, cumulative = -2.7876e-17
Pressure gradient source: uncorrected Ubar = 1, pressure gradient = 0.00516526
smoothSolver:  Solving for omega, Initial residual = 7.68983e-06, Final residual = 7.68983e-06, No Iterations 0
smoothSolver:  Solving for k, Initial residual = 0.000102906, Final residual = 8.91494e-06, No Iterations 4
ExecutionTime = 0.49745 s  ClockTime = 0 s

Time = 242s

smoothSolver:  Solving for Ux, Initial residual = 3.42092e-06, Final residual = 3.42092e-06, No Iterations 0
smoothSolver:  Solving for Uy, Initial residual = 0.00662303, Final residual = 0.000308525, No Iterations 3
Pressure gradient source: uncorrected Ubar = 1, pressure gradient = 0.00516526
GAMG:  Solving for p, Initial residual = 0.00108726, Final residual = 5.64973e-05, No Iterations 6
time step continuity errors : sum local = 1.11839e-08, global = -7.74297e-18, cumulative = -3.5619e-17
Pressure gradient source: uncorrected Ubar = 1, pressure gradient = 0.00516455
smoothSolver:  Solving for omega, Initial residual = 7.69003e-06, Final residual = 7.69003e-06, No Iterations 0
smoothSolver:  Solving for k, Initial residual = 0.000103039, Final residual = 9.40915e-06, No Iterations 4
ExecutionTime = 0.499591 s  ClockTime = 0 s


SIMPLE solution converged in 242 iterations

End

