/*---------------------------------------------------------------------------*\
  =========                 |
  \\      /  F ield         | OpenFOAM: The Open Source CFD Toolbox
   \\    /   O peration     | Website:  https://openfoam.org
    \\  /    A nd           | Version:  10
     \\/     M anipulation  |
\*---------------------------------------------------------------------------*/
Build  : 10-e450dce21ea5
Exec   : blockMesh
Date   : Feb 20 2023
Time   : 16:03:55
Host   : "w530-R9YK46P"
PID    : 27440
I/O    : uncollated
Case   : /home/jdmezazeron/gitDanielMezaZ/turbulenceVisualized/Code/SimExec
nProcs : 1
sigFpe : Enabling floating point exception trapping (FOAM_SIGFPE).
fileModificationChecking : Monitoring run-time modified files using timeStampMaster (fileModificationSkew 10)
allowSystemOperations : Allowing user-supplied system call operations

// * * * * * * * * * * * * * * * * * * * * * * * * * * * * * * * * * * * * * //
Create time

Reading "blockMeshDict"

Creating block mesh from
    "system/blockMeshDict"
Creating block edges
No non-planar block faces defined
Creating topology blocks
Creating topology patches

Creating block mesh topology

Check topology

	Basic statistics
		Number of internal faces : 0
		Number of boundary faces : 6
		Number of defined boundary faces : 6
		Number of undefined boundary faces : 0
	Checking patch -> block consistency

Creating block offsets
Creating merge list .

Creating polyMesh from blockMesh
Creating patches
Creating cells
Creating points with scale 1
    Block 0 cell size :
        i : 0.5
        j : 0.00921276 .. 0.036851
        k : 2

Detected cyclic patches; ordering boundary faces

Writing polyMesh
----------------
Mesh Information
----------------
  boundingBox: (-1 0 -1) (1 1 1)
  nPoints: 510
  nCells: 200
  nFaces: 854
  nInternalFaces: 346
----------------
Patches
----------------
  patch 0 (start: 346 size: 50) name: inlet
  patch 1 (start: 396 size: 50) name: outlet
  patch 2 (start: 446 size: 4) name: fixedWalls-bottom
  patch 3 (start: 450 size: 4) name: fixedWalls-top
  patch 4 (start: 454 size: 400) name: frontAndBack

End

/*---------------------------------------------------------------------------*\
  =========                 |
  \\      /  F ield         | OpenFOAM: The Open Source CFD Toolbox
   \\    /   O peration     | Website:  https://openfoam.org
    \\  /    A nd           | Version:  10
     \\/     M anipulation  |
\*---------------------------------------------------------------------------*/
Build  : 10-e450dce21ea5
Exec   : simpleFoam
Date   : Feb 20 2023
Time   : 16:03:55
Host   : "w530-R9YK46P"
PID    : 27441
I/O    : uncollated
Case   : /home/jdmezazeron/gitDanielMezaZ/turbulenceVisualized/Code/SimExec
nProcs : 1
sigFpe : Enabling floating point exception trapping (FOAM_SIGFPE).
fileModificationChecking : Monitoring run-time modified files using timeStampMaster (fileModificationSkew 10)
allowSystemOperations : Allowing user-supplied system call operations

// * * * * * * * * * * * * * * * * * * * * * * * * * * * * * * * * * * * * * //
Create time

Create mesh for time = 0


SIMPLE: Convergence criteria found
        U: tolerance 0.0001
        p: tolerance 0.01
        omega: tolerance 0.0001

Reading field p

Reading field U

Reading/calculating face flux field phi

Selecting viscosity model Newtonian
Selecting turbulence model type RAS
Selecting RAS turbulence model kOmegaSST
Selecting patchDistMethod meshWave
RAS
{
    RASModel        kOmegaSST;
    turbulence      on;
    printCoeffs     on;
    alphaK1         0.85;
    alphaK2         1;
    alphaOmega1     0.5;
    alphaOmega2     0.856;
    gamma1          0.555556;
    gamma2          0.44;
    beta1           0.075;
    beta2           0.0828;
    betaStar        0.09;
    a1              0.31;
    b1              1;
    c1              10;
    F3              false;
}

No MRF models present

--> FOAM Warning : Creating fvModels from "system/fvOptions" rather than constant/fvModels
No fvModels present
--> FOAM Warning : Creating fvConstraints from "system/fvOptions"

Selecting finite volume constraint type meanVelocityForce
    Name: momentumSource
    - selecting all cells
    - selected 200 cell(s) with volume 4
    Initial pressure gradient = 0


Starting time loop

turbulenceFields stressComp1: storing fields:
    R

Time = 1s

smoothSolver:  Solving for Ux, Initial residual = 0, Final residual = 0, No Iterations 0
smoothSolver:  Solving for Uy, Initial residual = 0, Final residual = 0, No Iterations 0
Pressure gradient source: uncorrected Ubar = 0, pressure gradient = 261.101
GAMG:  Solving for p, Initial residual = 0.999992, Final residual = 0.0605257, No Iterations 3
time step continuity errors : sum local = 1.079e-16, global = 3.55458e-18, cumulative = 3.55458e-18
Pressure gradient source: uncorrected Ubar = 0.869486, pressure gradient = 34.0772
smoothSolver:  Solving for omega, Initial residual = 0.266762, Final residual = 0.0157463, No Iterations 3
smoothSolver:  Solving for k, Initial residual = 1, Final residual = 0.0798723, No Iterations 5
ExecutionTime = 0.012261 s  ClockTime = 0 s

Time = 2s

smoothSolver:  Solving for Ux, Initial residual = 0.989579, Final residual = 0.0690131, No Iterations 7
smoothSolver:  Solving for Uy, Initial residual = 1, Final residual = 0.0956999, No Iterations 3
Pressure gradient source: uncorrected Ubar = 53.9286, pressure gradient = -259.307
GAMG:  Solving for p, Initial residual = 1, Final residual = 0.0700488, No Iterations 12
time step continuity errors : sum local = 0.0270822, global = 1.3623e-16, cumulative = 1.39785e-16
Pressure gradient source: uncorrected Ubar = 7.68454, pressure gradient = -2.97535
smoothSolver:  Solving for omega, Initial residual = 0.402242, Final residual = 0.00626447, No Iterations 2
smoothSolver:  Solving for k, Initial residual = 0.884742, Final residual = 0.0387925, No Iterations 1
ExecutionTime = 0.014532 s  ClockTime = 0 s

Time = 3s

smoothSolver:  Solving for Ux, Initial residual = 0.175646, Final residual = 0.0159287, No Iterations 5
smoothSolver:  Solving for Uy, Initial residual = 0.645006, Final residual = 0.0182916, No Iterations 2
Pressure gradient source: uncorrected Ubar = -0.0420912, pressure gradient = 21.1915
GAMG:  Solving for p, Initial residual = 0.321567, Final residual = 0.0288477, No Iterations 9
time step continuity errors : sum local = 0.0186513, global = -5.28549e-17, cumulative = 8.69297e-17
Pressure gradient source: uncorrected Ubar = 0.86116, pressure gradient = 0.244446
smoothSolver:  Solving for omega, Initial residual = 0.581789, Final residual = 0.0213576, No Iterations 1
smoothSolver:  Solving for k, Initial residual = 0.382969, Final residual = 0.013837, No Iterations 2
ExecutionTime = 0.016781 s  ClockTime = 0 s

Time = 4s

smoothSolver:  Solving for Ux, Initial residual = 0.0806018, Final residual = 0.00513957, No Iterations 5
smoothSolver:  Solving for Uy, Initial residual = 0.63882, Final residual = 0.0475181, No Iterations 2
Pressure gradient source: uncorrected Ubar = 0.932142, pressure gradient = 1.11926
GAMG:  Solving for p, Initial residual = 0.197833, Final residual = 0.0178654, No Iterations 8
time step continuity errors : sum local = 0.0191995, global = 9.65753e-17, cumulative = 1.83505e-16
Pressure gradient source: uncorrected Ubar = 0.991814, pressure gradient = 0.349974
smoothSolver:  Solving for omega, Initial residual = 0.259483, Final residual = 0.0101222, No Iterations 2
smoothSolver:  Solving for k, Initial residual = 0.727935, Final residual = 0.0694043, No Iterations 1
ExecutionTime = 0.018804 s  ClockTime = 0 s

Time = 5s

smoothSolver:  Solving for Ux, Initial residual = 0.0919795, Final residual = 0.00618977, No Iterations 5
smoothSolver:  Solving for Uy, Initial residual = 0.464121, Final residual = 0.0407934, No Iterations 2
Pressure gradient source: uncorrected Ubar = 0.778099, pressure gradient = 3.33249
GAMG:  Solving for p, Initial residual = 0.133167, Final residual = 0.0108081, No Iterations 7
time step continuity errors : sum local = 0.0166055, global = 1.60326e-17, cumulative = 1.99538e-16
Pressure gradient source: uncorrected Ubar = 0.972309, pressure gradient = 0.722164
smoothSolver:  Solving for omega, Initial residual = 0.484649, Final residual = 0.00576337, No Iterations 2
smoothSolver:  Solving for k, Initial residual = 0.419466, Final residual = 0.0237361, No Iterations 1
ExecutionTime = 0.020838 s  ClockTime = 0 s

Time = 6s

smoothSolver:  Solving for Ux, Initial residual = 0.0771125, Final residual = 0.0054956, No Iterations 5
smoothSolver:  Solving for Uy, Initial residual = 0.603527, Final residual = 0.0244835, No Iterations 2
Pressure gradient source: uncorrected Ubar = 1.16756, pressure gradient = -1.79419
GAMG:  Solving for p, Initial residual = 0.162932, Final residual = 0.0151817, No Iterations 7
time step continuity errors : sum local = 0.0199644, global = -1.12825e-17, cumulative = 1.88255e-16
Pressure gradient source: uncorrected Ubar = 1.02188, pressure gradient = 0.393629
smoothSolver:  Solving for omega, Initial residual = 0.48915, Final residual = 0.0399737, No Iterations 1
smoothSolver:  Solving for k, Initial residual = 0.225213, Final residual = 0.00402798, No Iterations 2
ExecutionTime = 0.022825 s  ClockTime = 0 s

Time = 7s

smoothSolver:  Solving for Ux, Initial residual = 0.104656, Final residual = 0.0102704, No Iterations 4
smoothSolver:  Solving for Uy, Initial residual = 0.656708, Final residual = 0.0316218, No Iterations 2
Pressure gradient source: uncorrected Ubar = 0.742326, pressure gradient = 4.52545
GAMG:  Solving for p, Initial residual = 0.24718, Final residual = 0.0180467, No Iterations 7
time step continuity errors : sum local = 0.0168486, global = 1.24141e-17, cumulative = 2.00669e-16
Pressure gradient source: uncorrected Ubar = 0.956252, pressure gradient = 1.09514
smoothSolver:  Solving for omega, Initial residual = 0.232488, Final residual = 0.00532962, No Iterations 2
smoothSolver:  Solving for k, Initial residual = 0.333592, Final residual = 0.00388344, No Iterations 2
ExecutionTime = 0.024843 s  ClockTime = 0 s

Time = 8s

smoothSolver:  Solving for Ux, Initial residual = 0.121807, Final residual = 0.0080157, No Iterations 4
smoothSolver:  Solving for Uy, Initial residual = 0.594725, Final residual = 0.0385873, No Iterations 2
Pressure gradient source: uncorrected Ubar = 0.977495, pressure gradient = 1.53017
GAMG:  Solving for p, Initial residual = 0.438251, Final residual = 0.025644, No Iterations 4
time step continuity errors : sum local = 0.0185037, global = 6.50521e-17, cumulative = 2.65721e-16
Pressure gradient source: uncorrected Ubar = 0.995631, pressure gradient = 1.17959
smoothSolver:  Solving for omega, Initial residual = 0.206135, Final residual = 0.00417632, No Iterations 2
smoothSolver:  Solving for k, Initial residual = 0.219544, Final residual = 0.00384107, No Iterations 2
ExecutionTime = 0.02675 s  ClockTime = 0 s

Time = 9s

smoothSolver:  Solving for Ux, Initial residual = 0.0957492, Final residual = 0.0071953, No Iterations 4
smoothSolver:  Solving for Uy, Initial residual = 0.663722, Final residual = 0.0334382, No Iterations 2
Pressure gradient source: uncorrected Ubar = 0.8382, pressure gradient = 4.84723
GAMG:  Solving for p, Initial residual = 0.415161, Final residual = 0.0213729, No Iterations 4
time step continuity errors : sum local = 0.0192549, global = 1.93801e-17, cumulative = 2.85102e-16
Pressure gradient source: uncorrected Ubar = 0.974893, pressure gradient = 1.74872
smoothSolver:  Solving for omega, Initial residual = 0.241611, Final residual = 0.00804947, No Iterations 2
smoothSolver:  Solving for k, Initial residual = 0.252083, Final residual = 0.00717255, No Iterations 2
ExecutionTime = 0.028672 s  ClockTime = 0 s

Time = 10s

smoothSolver:  Solving for Ux, Initial residual = 0.0586665, Final residual = 0.00485783, No Iterations 4
smoothSolver:  Solving for Uy, Initial residual = 0.71709, Final residual = 0.0355016, No Iterations 2
Pressure gradient source: uncorrected Ubar = 0.854348, pressure gradient = 5.35269
GAMG:  Solving for p, Initial residual = 0.339138, Final residual = 0.0307726, No Iterations 6
time step continuity errors : sum local = 0.0305611, global = -2.14706e-17, cumulative = 2.63631e-16
Pressure gradient source: uncorrected Ubar = 0.978062, pressure gradient = 2.29154
smoothSolver:  Solving for omega, Initial residual = 0.233017, Final residual = 0.00760162, No Iterations 2
smoothSolver:  Solving for k, Initial residual = 0.235221, Final residual = 0.0077811, No Iterations 2
ExecutionTime = 0.0307 s  ClockTime = 0 s

Time = 11s

smoothSolver:  Solving for Ux, Initial residual = 0.0471378, Final residual = 0.00356441, No Iterations 4
smoothSolver:  Solving for Uy, Initial residual = 0.621129, Final residual = 0.0344239, No Iterations 2
Pressure gradient source: uncorrected Ubar = 0.932429, pressure gradient = 4.27195
GAMG:  Solving for p, Initial residual = 0.556011, Final residual = 0.0524583, No Iterations 4
time step continuity errors : sum local = 0.0382398, global = -3.27429e-17, cumulative = 2.30888e-16
Pressure gradient source: uncorrected Ubar = 0.990594, pressure gradient = 2.56723
smoothSolver:  Solving for omega, Initial residual = 0.234261, Final residual = 0.0105439, No Iterations 2
smoothSolver:  Solving for k, Initial residual = 0.18024, Final residual = 0.0104325, No Iterations 2
ExecutionTime = 0.032625 s  ClockTime = 0 s

Time = 12s

smoothSolver:  Solving for Ux, Initial residual = 0.0390661, Final residual = 0.00299784, No Iterations 4
smoothSolver:  Solving for Uy, Initial residual = 0.553897, Final residual = 0.0518365, No Iterations 2
Pressure gradient source: uncorrected Ubar = 0.938376, pressure gradient = 4.70392
GAMG:  Solving for p, Initial residual = 0.372988, Final residual = 0.0351397, No Iterations 5
time step continuity errors : sum local = 0.054559, global = 3.36645e-17, cumulative = 2.64553e-16
Pressure gradient source: uncorrected Ubar = 0.990324, pressure gradient = 2.90272
smoothSolver:  Solving for omega, Initial residual = 0.239245, Final residual = 0.0107892, No Iterations 2
bounding omega, min: -1.2132 max: 789.583 average: 98.9506
smoothSolver:  Solving for k, Initial residual = 0.11373, Final residual = 0.00852131, No Iterations 2
ExecutionTime = 0.034641 s  ClockTime = 0 s

Time = 13s

smoothSolver:  Solving for Ux, Initial residual = 0.0354475, Final residual = 0.00260175, No Iterations 4
smoothSolver:  Solving for Uy, Initial residual = 0.57048, Final residual = 0.0390423, No Iterations 2
Pressure gradient source: uncorrected Ubar = 0.916043, pressure gradient = 6.298
GAMG:  Solving for p, Initial residual = 0.519284, Final residual = 0.0473614, No Iterations 4
time step continuity errors : sum local = 0.0604612, global = -1.94994e-16, cumulative = 6.95588e-17
Pressure gradient source: uncorrected Ubar = 0.989312, pressure gradient = 3.33496
smoothSolver:  Solving for omega, Initial residual = 0.281717, Final residual = 0.0133782, No Iterations 2
smoothSolver:  Solving for k, Initial residual = 0.110632, Final residual = 0.00643664, No Iterations 2
ExecutionTime = 0.036555 s  ClockTime = 0 s

Time = 14s

smoothSolver:  Solving for Ux, Initial residual = 0.0329806, Final residual = 0.00236328, No Iterations 4
smoothSolver:  Solving for Uy, Initial residual = 0.59681, Final residual = 0.0424478, No Iterations 2
Pressure gradient source: uncorrected Ubar = 0.941338, pressure gradient = 5.90128
GAMG:  Solving for p, Initial residual = 0.314465, Final residual = 0.0285688, No Iterations 5
time step continuity errors : sum local = 0.0699998, global = -5.22653e-17, cumulative = 1.72934e-17
Pressure gradient source: uncorrected Ubar = 0.994096, pressure gradient = 3.59325
smoothSolver:  Solving for omega, Initial residual = 0.29454, Final residual = 0.0146676, No Iterations 2
smoothSolver:  Solving for k, Initial residual = 0.0988557, Final residual = 0.00805852, No Iterations 2
ExecutionTime = 0.038486 s  ClockTime = 0 s

Time = 15s

smoothSolver:  Solving for Ux, Initial residual = 0.0322148, Final residual = 0.00199993, No Iterations 4
smoothSolver:  Solving for Uy, Initial residual = 0.614441, Final residual = 0.0413628, No Iterations 2
Pressure gradient source: uncorrected Ubar = 0.943178, pressure gradient = 6.47423
GAMG:  Solving for p, Initial residual = 0.605384, Final residual = 0.0520791, No Iterations 4
time step continuity errors : sum local = 0.0729855, global = -8.41341e-17, cumulative = -6.68406e-17
Pressure gradient source: uncorrected Ubar = 0.992911, pressure gradient = 3.95268
smoothSolver:  Solving for omega, Initial residual = 0.258098, Final residual = 0.0119283, No Iterations 2
smoothSolver:  Solving for k, Initial residual = 0.101755, Final residual = 0.00898709, No Iterations 2
ExecutionTime = 0.040401 s  ClockTime = 0 s

Time = 16s

smoothSolver:  Solving for Ux, Initial residual = 0.0294673, Final residual = 0.00198281, No Iterations 4
smoothSolver:  Solving for Uy, Initial residual = 0.657912, Final residual = 0.0597592, No Iterations 2
Pressure gradient source: uncorrected Ubar = 0.960387, pressure gradient = 6.2471
GAMG:  Solving for p, Initial residual = 0.310556, Final residual = 0.0252986, No Iterations 6
time step continuity errors : sum local = 0.0679176, global = 9.55182e-17, cumulative = 2.86776e-17
Pressure gradient source: uncorrected Ubar = 0.995219, pressure gradient = 4.22961
smoothSolver:  Solving for omega, Initial residual = 0.247731, Final residual = 0.00890409, No Iterations 2
smoothSolver:  Solving for k, Initial residual = 0.0992309, Final residual = 0.00771973, No Iterations 2
ExecutionTime = 0.042382 s  ClockTime = 0 s

Time = 17s

smoothSolver:  Solving for Ux, Initial residual = 0.0276201, Final residual = 0.00191886, No Iterations 4
smoothSolver:  Solving for Uy, Initial residual = 0.625834, Final residual = 0.0582077, No Iterations 2
Pressure gradient source: uncorrected Ubar = 0.953054, pressure gradient = 7.29209
GAMG:  Solving for p, Initial residual = 0.327415, Final residual = 0.0239055, No Iterations 5
time step continuity errors : sum local = 0.0706897, global = -6.72205e-18, cumulative = 2.19555e-17
Pressure gradient source: uncorrected Ubar = 0.994526, pressure gradient = 4.5867
smoothSolver:  Solving for omega, Initial residual = 0.240378, Final residual = 0.00919347, No Iterations 2
smoothSolver:  Solving for k, Initial residual = 0.0972942, Final residual = 0.00718811, No Iterations 2
ExecutionTime = 0.044319 s  ClockTime = 0 s

Time = 18s

smoothSolver:  Solving for Ux, Initial residual = 0.025447, Final residual = 0.00184118, No Iterations 4
smoothSolver:  Solving for Uy, Initial residual = 0.476537, Final residual = 0.0357249, No Iterations 2
Pressure gradient source: uncorrected Ubar = 0.96583, pressure gradient = 6.96636
GAMG:  Solving for p, Initial residual = 0.315712, Final residual = 0.0303551, No Iterations 4
time step continuity errors : sum local = 0.0632531, global = -3.04661e-17, cumulative = -8.51057e-18
Pressure gradient source: uncorrected Ubar = 0.997701, pressure gradient = 4.74681
smoothSolver:  Solving for omega, Initial residual = 0.226224, Final residual = 0.00973468, No Iterations 2
smoothSolver:  Solving for k, Initial residual = 0.0887482, Final residual = 0.00764716, No Iterations 2
ExecutionTime = 0.046218 s  ClockTime = 0 s

Time = 19s

smoothSolver:  Solving for Ux, Initial residual = 0.0237821, Final residual = 0.00177405, No Iterations 4
smoothSolver:  Solving for Uy, Initial residual = 0.512693, Final residual = 0.0231333, No Iterations 3
Pressure gradient source: uncorrected Ubar = 0.95665, pressure gradient = 8.00403
GAMG:  Solving for p, Initial residual = 0.266018, Final residual = 0.0259516, No Iterations 7
time step continuity errors : sum local = 0.0618905, global = -3.33934e-17, cumulative = -4.1904e-17
Pressure gradient source: uncorrected Ubar = 0.995649, pressure gradient = 5.07373
smoothSolver:  Solving for omega, Initial residual = 0.217319, Final residual = 0.00994521, No Iterations 2
smoothSolver:  Solving for k, Initial residual = 0.0787864, Final residual = 0.00706987, No Iterations 2
ExecutionTime = 0.04822 s  ClockTime = 0 s

Time = 20s

smoothSolver:  Solving for Ux, Initial residual = 0.0220537, Final residual = 0.00169135, No Iterations 4
smoothSolver:  Solving for Uy, Initial residual = 0.593769, Final residual = 0.0571612, No Iterations 2
Pressure gradient source: uncorrected Ubar = 0.945614, pressure gradient = 9.72241
GAMG:  Solving for p, Initial residual = 0.40206, Final residual = 0.03769, No Iterations 4
time step continuity errors : sum local = 0.0613474, global = -1.14653e-16, cumulative = -1.56557e-16
Pressure gradient source: uncorrected Ubar = 0.99302, pressure gradient = 5.67038
smoothSolver:  Solving for omega, Initial residual = 0.20961, Final residual = 0.00906896, No Iterations 2
smoothSolver:  Solving for k, Initial residual = 0.0772689, Final residual = 0.00419366, No Iterations 3
ExecutionTime = 0.050132 s  ClockTime = 0 s

Time = 21s

smoothSolver:  Solving for Ux, Initial residual = 0.0214564, Final residual = 0.00177072, No Iterations 4
smoothSolver:  Solving for Uy, Initial residual = 0.54987, Final residual = 0.0525941, No Iterations 2
Pressure gradient source: uncorrected Ubar = 0.962749, pressure gradient = 9.26714
GAMG:  Solving for p, Initial residual = 0.345052, Final residual = 0.0297248, No Iterations 4
time step continuity errors : sum local = 0.0384696, global = -4.84096e-17, cumulative = -2.04966e-16
Pressure gradient source: uncorrected Ubar = 0.995512, pressure gradient = 6.10371
smoothSolver:  Solving for omega, Initial residual = 0.197229, Final residual = 0.00771125, No Iterations 2
smoothSolver:  Solving for k, Initial residual = 0.0723839, Final residual = 0.00454627, No Iterations 3
ExecutionTime = 0.052079 s  ClockTime = 0 s

Time = 22s

smoothSolver:  Solving for Ux, Initial residual = 0.0216007, Final residual = 0.00182826, No Iterations 4
smoothSolver:  Solving for Uy, Initial residual = 0.47691, Final residual = 0.0215397, No Iterations 3
Pressure gradient source: uncorrected Ubar = 0.950362, pressure gradient = 11.3805
GAMG:  Solving for p, Initial residual = 0.214348, Final residual = 0.0192264, No Iterations 9
time step continuity errors : sum local = 0.0427221, global = 6.89146e-18, cumulative = -1.98075e-16
Pressure gradient source: uncorrected Ubar = 0.992801, pressure gradient = 6.869
smoothSolver:  Solving for omega, Initial residual = 0.21163, Final residual = 0.00860508, No Iterations 2
smoothSolver:  Solving for k, Initial residual = 0.0723508, Final residual = 0.00454141, No Iterations 3
ExecutionTime = 0.054136 s  ClockTime = 0 s

Time = 23s

smoothSolver:  Solving for Ux, Initial residual = 0.0213571, Final residual = 0.00190187, No Iterations 4
smoothSolver:  Solving for Uy, Initial residual = 0.462688, Final residual = 0.0236646, No Iterations 3
Pressure gradient source: uncorrected Ubar = 0.958009, pressure gradient = 11.951
GAMG:  Solving for p, Initial residual = 0.099742, Final residual = 0.00963699, No Iterations 10
time step continuity errors : sum local = 0.0406116, global = 7.64363e-17, cumulative = -1.21639e-16
Pressure gradient source: uncorrected Ubar = 0.994572, pressure gradient = 7.52588
smoothSolver:  Solving for omega, Initial residual = 0.187311, Final residual = 0.00786854, No Iterations 2
smoothSolver:  Solving for k, Initial residual = 0.0717081, Final residual = 0.00542069, No Iterations 3
ExecutionTime = 0.05623 s  ClockTime = 0 s

Time = 24s

smoothSolver:  Solving for Ux, Initial residual = 0.0215857, Final residual = 0.00196612, No Iterations 4
smoothSolver:  Solving for Uy, Initial residual = 0.366492, Final residual = 0.0226999, No Iterations 3
Pressure gradient source: uncorrected Ubar = 0.950197, pressure gradient = 14.3772
GAMG:  Solving for p, Initial residual = 0.0667401, Final residual = 0.00556182, No Iterations 6
time step continuity errors : sum local = 0.0280926, global = 5.44812e-17, cumulative = -6.71574e-17
Pressure gradient source: uncorrected Ubar = 0.993442, pressure gradient = 8.42804
smoothSolver:  Solving for omega, Initial residual = 0.183849, Final residual = 0.00885281, No Iterations 2
smoothSolver:  Solving for k, Initial residual = 0.0703693, Final residual = 0.00561401, No Iterations 3
ExecutionTime = 0.058225 s  ClockTime = 0 s

Time = 25s

smoothSolver:  Solving for Ux, Initial residual = 0.021806, Final residual = 0.00207668, No Iterations 4
smoothSolver:  Solving for Uy, Initial residual = 0.296449, Final residual = 0.0210961, No Iterations 3
Pressure gradient source: uncorrected Ubar = 0.954643, pressure gradient = 15.5819
GAMG:  Solving for p, Initial residual = 0.0530651, Final residual = 0.00445694, No Iterations 4
time step continuity errors : sum local = 0.0206496, global = 5.10659e-17, cumulative = -1.60915e-17
Pressure gradient source: uncorrected Ubar = 0.994624, pressure gradient = 9.276
smoothSolver:  Solving for omega, Initial residual = 0.168398, Final residual = 0.00784861, No Iterations 2
smoothSolver:  Solving for k, Initial residual = 0.0696344, Final residual = 0.00592651, No Iterations 3
ExecutionTime = 0.060152 s  ClockTime = 0 s

Time = 26s

smoothSolver:  Solving for Ux, Initial residual = 0.0221168, Final residual = 0.00218941, No Iterations 4
smoothSolver:  Solving for Uy, Initial residual = 0.272543, Final residual = 0.0210579, No Iterations 3
Pressure gradient source: uncorrected Ubar = 0.977273, pressure gradient = 13.1293
GAMG:  Solving for p, Initial residual = 0.0489597, Final residual = 0.0038909, No Iterations 3
time step continuity errors : sum local = 0.0153881, global = 1.59429e-17, cumulative = -1.48658e-19
Pressure gradient source: uncorrected Ubar = 0.998401, pressure gradient = 9.54703
smoothSolver:  Solving for omega, Initial residual = 0.199582, Final residual = 0.00769674, No Iterations 2
smoothSolver:  Solving for k, Initial residual = 0.0678984, Final residual = 0.00592296, No Iterations 3
ExecutionTime = 0.062037 s  ClockTime = 0 s

Time = 27s

smoothSolver:  Solving for Ux, Initial residual = 0.0221098, Final residual = 0.00216494, No Iterations 4
smoothSolver:  Solving for Uy, Initial residual = 0.24146, Final residual = 0.021234, No Iterations 3
Pressure gradient source: uncorrected Ubar = 0.979067, pressure gradient = 13.7146
GAMG:  Solving for p, Initial residual = 0.0700782, Final residual = 0.00488919, No Iterations 3
time step continuity errors : sum local = 0.00966041, global = -3.82715e-17, cumulative = -3.84201e-17
Pressure gradient source: uncorrected Ubar = 0.99884, pressure gradient = 9.77794
smoothSolver:  Solving for omega, Initial residual = 0.182493, Final residual = 0.00837743, No Iterations 2
smoothSolver:  Solving for k, Initial residual = 0.066537, Final residual = 0.00584239, No Iterations 3
ExecutionTime = 0.063992 s  ClockTime = 0 s

Time = 28s

smoothSolver:  Solving for Ux, Initial residual = 0.0228736, Final residual = 0.00219032, No Iterations 4
smoothSolver:  Solving for Uy, Initial residual = 0.201949, Final residual = 0.0195052, No Iterations 3
Pressure gradient source: uncorrected Ubar = 1.01148, pressure gradient = 7.46954
GAMG:  Solving for p, Initial residual = 0.0814374, Final residual = 0.00661797, No Iterations 3
time step continuity errors : sum local = 0.00989178, global = -6.87384e-17, cumulative = -1.07159e-16
Pressure gradient source: uncorrected Ubar = 1.004, pressure gradient = 8.97433
smoothSolver:  Solving for omega, Initial residual = 0.223088, Final residual = 0.00876236, No Iterations 2
smoothSolver:  Solving for k, Initial residual = 0.0675884, Final residual = 0.00644885, No Iterations 3
ExecutionTime = 0.065877 s  ClockTime = 0 s

Time = 29s

smoothSolver:  Solving for Ux, Initial residual = 0.0222204, Final residual = 0.00210684, No Iterations 4
smoothSolver:  Solving for Uy, Initial residual = 0.168963, Final residual = 0.00933244, No Iterations 4
Pressure gradient source: uncorrected Ubar = 0.989872, pressure gradient = 11.3943
GAMG:  Solving for p, Initial residual = 0.0488842, Final residual = 0.00460722, No Iterations 3
time step continuity errors : sum local = 0.00886385, global = -6.58111e-17, cumulative = -1.7297e-16
Pressure gradient source: uncorrected Ubar = 0.999809, pressure gradient = 9.01993
smoothSolver:  Solving for omega, Initial residual = 0.180714, Final residual = 0.00934101, No Iterations 2
smoothSolver:  Solving for k, Initial residual = 0.0621068, Final residual = 0.00384549, No Iterations 4
ExecutionTime = 0.06777 s  ClockTime = 0 s

Time = 30s

smoothSolver:  Solving for Ux, Initial residual = 0.0222747, Final residual = 0.00219982, No Iterations 4
smoothSolver:  Solving for Uy, Initial residual = 0.12389, Final residual = 0.00748395, No Iterations 4
Pressure gradient source: uncorrected Ubar = 1.03288, pressure gradient = 1.31365
GAMG:  Solving for p, Initial residual = 0.0213488, Final residual = 0.00141717, No Iterations 4
time step continuity errors : sum local = 0.0048342, global = 1.10591e-17, cumulative = -1.61911e-16
Pressure gradient source: uncorrected Ubar = 1.00629, pressure gradient = 7.5448
smoothSolver:  Solving for omega, Initial residual = 0.23795, Final residual = 0.00975689, No Iterations 2
smoothSolver:  Solving for k, Initial residual = 0.0623191, Final residual = 0.00417188, No Iterations 4
ExecutionTime = 0.069714 s  ClockTime = 0 s

Time = 31s

smoothSolver:  Solving for Ux, Initial residual = 0.0208533, Final residual = 0.00205677, No Iterations 4
smoothSolver:  Solving for Uy, Initial residual = 0.101818, Final residual = 0.00613899, No Iterations 4
Pressure gradient source: uncorrected Ubar = 1.01288, pressure gradient = 3.9423
GAMG:  Solving for p, Initial residual = 0.0199528, Final residual = 0.00149336, No Iterations 4
time step continuity errors : sum local = 0.00419172, global = -1.1709e-17, cumulative = -1.7362e-16
Pressure gradient source: uncorrected Ubar = 1.00228, pressure gradient = 6.90591
smoothSolver:  Solving for omega, Initial residual = 0.143119, Final residual = 0.0119152, No Iterations 2
smoothSolver:  Solving for k, Initial residual = 0.0566479, Final residual = 0.00433805, No Iterations 4
ExecutionTime = 0.07165 s  ClockTime = 0 s

Time = 32s

smoothSolver:  Solving for Ux, Initial residual = 0.0182505, Final residual = 0.00127247, No Iterations 5
smoothSolver:  Solving for Uy, Initial residual = 0.109233, Final residual = 0.00746193, No Iterations 4
Pressure gradient source: uncorrected Ubar = 1.03758, pressure gradient = -3.14005
GAMG:  Solving for p, Initial residual = 0.0117831, Final residual = 0.00117661, No Iterations 6
time step continuity errors : sum local = 0.00475853, global = -7.32785e-17, cumulative = -2.46898e-16
Pressure gradient source: uncorrected Ubar = 1.00581, pressure gradient = 5.35184
smoothSolver:  Solving for omega, Initial residual = 0.195509, Final residual = 0.0121527, No Iterations 2
smoothSolver:  Solving for k, Initial residual = 0.049242, Final residual = 0.00420344, No Iterations 4
ExecutionTime = 0.073643 s  ClockTime = 0 s

Time = 33s

smoothSolver:  Solving for Ux, Initial residual = 0.0147501, Final residual = 0.00112796, No Iterations 5
smoothSolver:  Solving for Uy, Initial residual = 0.113998, Final residual = 0.00934104, No Iterations 4
Pressure gradient source: uncorrected Ubar = 1.01116, pressure gradient = 1.86077
GAMG:  Solving for p, Initial residual = 0.0146222, Final residual = 0.0012367, No Iterations 6
time step continuity errors : sum local = 0.00358953, global = 5.54879e-17, cumulative = -1.9141e-16
Pressure gradient source: uncorrected Ubar = 1.00149, pressure gradient = 4.88447
smoothSolver:  Solving for omega, Initial residual = 0.103649, Final residual = 0.00667066, No Iterations 3
smoothSolver:  Solving for k, Initial residual = 0.0409341, Final residual = 0.00386381, No Iterations 4
ExecutionTime = 0.075653 s  ClockTime = 0 s

Time = 34s

smoothSolver:  Solving for Ux, Initial residual = 0.0127623, Final residual = 0.00107023, No Iterations 5
smoothSolver:  Solving for Uy, Initial residual = 0.135847, Final residual = 0.0121959, No Iterations 4
Pressure gradient source: uncorrected Ubar = 1.02037, pressure gradient = -1.21134
GAMG:  Solving for p, Initial residual = 0.00889006, Final residual = 0.000885259, No Iterations 8
time step continuity errors : sum local = 0.00376209, global = 1.13875e-17, cumulative = -1.80023e-16
Pressure gradient source: uncorrected Ubar = 1.003, pressure gradient = 3.98728
smoothSolver:  Solving for omega, Initial residual = 0.169937, Final residual = 0.0123312, No Iterations 2
smoothSolver:  Solving for k, Initial residual = 0.0331926, Final residual = 0.00218633, No Iterations 5
ExecutionTime = 0.077711 s  ClockTime = 0 s

Time = 35s

smoothSolver:  Solving for Ux, Initial residual = 0.0118722, Final residual = 0.000972962, No Iterations 5
smoothSolver:  Solving for Uy, Initial residual = 0.149587, Final residual = 0.0138557, No Iterations 4
Pressure gradient source: uncorrected Ubar = 1.00398, pressure gradient = 2.62583
GAMG:  Solving for p, Initial residual = 0.0105313, Final residual = 0.00103325, No Iterations 7
time step continuity errors : sum local = 0.00268965, global = -4.23925e-17, cumulative = -2.22415e-16
Pressure gradient source: uncorrected Ubar = 1.00032, pressure gradient = 3.87684
smoothSolver:  Solving for omega, Initial residual = 0.0789364, Final residual = 0.00576478, No Iterations 3
smoothSolver:  Solving for k, Initial residual = 0.0272033, Final residual = 0.00201374, No Iterations 5
ExecutionTime = 0.07973 s  ClockTime = 0 s

Time = 36s

smoothSolver:  Solving for Ux, Initial residual = 0.0113687, Final residual = 0.00094448, No Iterations 5
smoothSolver:  Solving for Uy, Initial residual = 0.149869, Final residual = 0.0143381, No Iterations 4
Pressure gradient source: uncorrected Ubar = 1.01539, pressure gradient = -1.2312
GAMG:  Solving for p, Initial residual = 0.00790271, Final residual = 0.00068729, No Iterations 11
time step continuity errors : sum local = 0.00187776, global = -8.02479e-18, cumulative = -2.3044e-16
Pressure gradient source: uncorrected Ubar = 1.00214, pressure gradient = 3.16738
smoothSolver:  Solving for omega, Initial residual = 0.127631, Final residual = 0.0110765, No Iterations 2
smoothSolver:  Solving for k, Initial residual = 0.0233417, Final residual = 0.00185827, No Iterations 5
ExecutionTime = 0.081889 s  ClockTime = 0 s

Time = 37s

smoothSolver:  Solving for Ux, Initial residual = 0.0108363, Final residual = 0.000885463, No Iterations 5
smoothSolver:  Solving for Uy, Initial residual = 0.138008, Final residual = 0.0081566, No Iterations 5
Pressure gradient source: uncorrected Ubar = 0.997512, pressure gradient = 4.09445
GAMG:  Solving for p, Initial residual = 0.0116877, Final residual = 0.001099, No Iterations 6
time step continuity errors : sum local = 0.00182729, global = 8.23968e-17, cumulative = -1.48043e-16
Pressure gradient source: uncorrected Ubar = 0.999316, pressure gradient = 3.4221
smoothSolver:  Solving for omega, Initial residual = 0.0565553, Final residual = 0.00448782, No Iterations 3
smoothSolver:  Solving for k, Initial residual = 0.0220651, Final residual = 0.00170607, No Iterations 5
ExecutionTime = 0.08389 s  ClockTime = 0 s

Time = 38s

smoothSolver:  Solving for Ux, Initial residual = 0.0105657, Final residual = 0.000878727, No Iterations 5
smoothSolver:  Solving for Uy, Initial residual = 0.128957, Final residual = 0.00799762, No Iterations 5
Pressure gradient source: uncorrected Ubar = 1.01497, pressure gradient = -2.06705
GAMG:  Solving for p, Initial residual = 0.0117852, Final residual = 0.00117343, No Iterations 6
time step continuity errors : sum local = 0.00175908, global = -2.39575e-17, cumulative = -1.72001e-16
Pressure gradient source: uncorrected Ubar = 1.00204, pressure gradient = 2.67395
smoothSolver:  Solving for omega, Initial residual = 0.0941769, Final residual = 0.00549617, No Iterations 3
smoothSolver:  Solving for k, Initial residual = 0.0204771, Final residual = 0.00166054, No Iterations 5
ExecutionTime = 0.085898 s  ClockTime = 0 s

Time = 39s

smoothSolver:  Solving for Ux, Initial residual = 0.0102017, Final residual = 0.000844521, No Iterations 5
smoothSolver:  Solving for Uy, Initial residual = 0.12502, Final residual = 0.00814301, No Iterations 5
Pressure gradient source: uncorrected Ubar = 0.992211, pressure gradient = 5.85332
GAMG:  Solving for p, Initial residual = 0.0195068, Final residual = 0.00193189, No Iterations 6
time step continuity errors : sum local = 0.00130638, global = -2.89753e-17, cumulative = -2.00976e-16
Pressure gradient source: uncorrected Ubar = 0.998513, pressure gradient = 3.28099
smoothSolver:  Solving for omega, Initial residual = 0.0427578, Final residual = 0.00328117, No Iterations 3
smoothSolver:  Solving for k, Initial residual = 0.0203466, Final residual = 0.00158924, No Iterations 5
ExecutionTime = 0.087903 s  ClockTime = 0 s

Time = 40s

smoothSolver:  Solving for Ux, Initial residual = 0.0100947, Final residual = 0.00084323, No Iterations 5
smoothSolver:  Solving for Uy, Initial residual = 0.115814, Final residual = 0.0082124, No Iterations 5
Pressure gradient source: uncorrected Ubar = 1.0153, pressure gradient = -2.8105
GAMG:  Solving for p, Initial residual = 0.0282178, Final residual = 0.00254491, No Iterations 10
time step continuity errors : sum local = 0.00102934, global = 7.21309e-17, cumulative = -1.28845e-16
Pressure gradient source: uncorrected Ubar = 1.0021, pressure gradient = 2.4439
smoothSolver:  Solving for omega, Initial residual = 0.0712664, Final residual = 0.00422721, No Iterations 3
smoothSolver:  Solving for k, Initial residual = 0.0172531, Final residual = 0.00170506, No Iterations 5
ExecutionTime = 0.090025 s  ClockTime = 0 s

Time = 41s

smoothSolver:  Solving for Ux, Initial residual = 0.00979818, Final residual = 0.000832927, No Iterations 5
smoothSolver:  Solving for Uy, Initial residual = 0.106014, Final residual = 0.00815568, No Iterations 5
Pressure gradient source: uncorrected Ubar = 1.00351, pressure gradient = 0.943794
GAMG:  Solving for p, Initial residual = 0.0684644, Final residual = 0.00628242, No Iterations 12
time step continuity errors : sum local = 0.000759961, global = 7.26276e-17, cumulative = -5.62175e-17
Pressure gradient source: uncorrected Ubar = 1.0002, pressure gradient = 2.35879
smoothSolver:  Solving for omega, Initial residual = 0.0313588, Final residual = 0.00287094, No Iterations 4
smoothSolver:  Solving for k, Initial residual = 0.0164412, Final residual = 0.00158896, No Iterations 5
ExecutionTime = 0.092238 s  ClockTime = 0 s

Time = 42s

smoothSolver:  Solving for Ux, Initial residual = 0.00963623, Final residual = 0.000823593, No Iterations 5
smoothSolver:  Solving for Uy, Initial residual = 0.107198, Final residual = 0.00871479, No Iterations 5
Pressure gradient source: uncorrected Ubar = 1.00019, pressure gradient = 2.2727
GAMG:  Solving for p, Initial residual = 0.0204325, Final residual = 0.00204115, No Iterations 14
time step continuity errors : sum local = 0.000637123, global = 9.30245e-17, cumulative = 3.68071e-17
Pressure gradient source: uncorrected Ubar = 0.99972, pressure gradient = 2.48472
smoothSolver:  Solving for omega, Initial residual = 0.0244056, Final residual = 0.0023951, No Iterations 4
smoothSolver:  Solving for k, Initial residual = 0.0160198, Final residual = 0.00104223, No Iterations 6
ExecutionTime = 0.094475 s  ClockTime = 0 s

Time = 43s

smoothSolver:  Solving for Ux, Initial residual = 0.00949644, Final residual = 0.000811205, No Iterations 5
smoothSolver:  Solving for Uy, Initial residual = 0.1157, Final residual = 0.00968614, No Iterations 5
Pressure gradient source: uncorrected Ubar = 1.00299, pressure gradient = 1.06621
GAMG:  Solving for p, Initial residual = 0.0124095, Final residual = 0.00112856, No Iterations 20
time step continuity errors : sum local = 0.000556045, global = -9.40815e-17, cumulative = -5.72745e-17
Pressure gradient source: uncorrected Ubar = 1.00017, pressure gradient = 2.40312
smoothSolver:  Solving for omega, Initial residual = 0.0161647, Final residual = 0.00143505, No Iterations 5
smoothSolver:  Solving for k, Initial residual = 0.0154862, Final residual = 0.00101925, No Iterations 6
ExecutionTime = 0.096891 s  ClockTime = 0 s

Time = 44s

smoothSolver:  Solving for Ux, Initial residual = 0.00934279, Final residual = 0.000800895, No Iterations 5
smoothSolver:  Solving for Uy, Initial residual = 0.128187, Final residual = 0.0107029, No Iterations 5
Pressure gradient source: uncorrected Ubar = 1.00223, pressure gradient = 1.29563
GAMG:  Solving for p, Initial residual = 0.0102165, Final residual = 0.000895971, No Iterations 27
time step continuity errors : sum local = 0.000472759, global = -2.44282e-17, cumulative = -8.17027e-17
Pressure gradient source: uncorrected Ubar = 1.00007, pressure gradient = 2.36797
smoothSolver:  Solving for omega, Initial residual = 0.0151649, Final residual = 0.00123062, No Iterations 5
smoothSolver:  Solving for k, Initial residual = 0.0150558, Final residual = 0.00105818, No Iterations 6
ExecutionTime = 0.099499 s  ClockTime = 0 s

Time = 45s

smoothSolver:  Solving for Ux, Initial residual = 0.00920852, Final residual = 0.000791677, No Iterations 5
smoothSolver:  Solving for Uy, Initial residual = 0.13227, Final residual = 0.0110089, No Iterations 5
Pressure gradient source: uncorrected Ubar = 1.00273, pressure gradient = 0.953762
GAMG:  Solving for p, Initial residual = 0.00837627, Final residual = 0.000776842, No Iterations 27
time step continuity errors : sum local = 0.000311541, global = 4.58337e-18, cumulative = -7.71193e-17
Pressure gradient source: uncorrected Ubar = 1.00016, pressure gradient = 2.28285
smoothSolver:  Solving for omega, Initial residual = 0.0129558, Final residual = 0.00117283, No Iterations 5
smoothSolver:  Solving for k, Initial residual = 0.0141356, Final residual = 0.000960315, No Iterations 6
ExecutionTime = 0.102114 s  ClockTime = 0 s

Time = 46s

smoothSolver:  Solving for Ux, Initial residual = 0.00909626, Final residual = 0.000784476, No Iterations 5
smoothSolver:  Solving for Uy, Initial residual = 0.130821, Final residual = 0.0108297, No Iterations 5
Pressure gradient source: uncorrected Ubar = 1.00246, pressure gradient = 0.963145
GAMG:  Solving for p, Initial residual = 0.00881125, Final residual = 0.000818466, No Iterations 26
time step continuity errors : sum local = 0.000346151, global = 2.8013e-17, cumulative = -4.91063e-17
Pressure gradient source: uncorrected Ubar = 1.00013, pressure gradient = 2.21178
smoothSolver:  Solving for omega, Initial residual = 0.0119656, Final residual = 0.00103984, No Iterations 5
smoothSolver:  Solving for k, Initial residual = 0.0135876, Final residual = 0.000949097, No Iterations 6
ExecutionTime = 0.104695 s  ClockTime = 0 s

Time = 47s

smoothSolver:  Solving for Ux, Initial residual = 0.00899422, Final residual = 0.000777412, No Iterations 5
smoothSolver:  Solving for Uy, Initial residual = 0.127123, Final residual = 0.0102393, No Iterations 5
Pressure gradient source: uncorrected Ubar = 1.00264, pressure gradient = 0.739701
GAMG:  Solving for p, Initial residual = 0.0080403, Final residual = 0.000622461, No Iterations 28
time step continuity errors : sum local = 0.000219998, global = -5.12622e-18, cumulative = -5.42325e-17
Pressure gradient source: uncorrected Ubar = 1.00017, pressure gradient = 2.11603
smoothSolver:  Solving for omega, Initial residual = 0.0114188, Final residual = 0.00101207, No Iterations 5
smoothSolver:  Solving for k, Initial residual = 0.0128086, Final residual = 0.000915316, No Iterations 6
ExecutionTime = 0.107344 s  ClockTime = 0 s

Time = 48s

smoothSolver:  Solving for Ux, Initial residual = 0.00890378, Final residual = 0.000771777, No Iterations 5
smoothSolver:  Solving for Uy, Initial residual = 0.119719, Final residual = 0.00948765, No Iterations 5
Pressure gradient source: uncorrected Ubar = 1.00248, pressure gradient = 0.684787
GAMG:  Solving for p, Initial residual = 0.00876672, Final residual = 0.000847956, No Iterations 26
time step continuity errors : sum local = 0.000215107, global = -2.61327e-17, cumulative = -8.03652e-17
Pressure gradient source: uncorrected Ubar = 1.00015, pressure gradient = 2.02717
smoothSolver:  Solving for omega, Initial residual = 0.010852, Final residual = 0.000935573, No Iterations 5
smoothSolver:  Solving for k, Initial residual = 0.0119969, Final residual = 0.000850999, No Iterations 6
ExecutionTime = 0.109952 s  ClockTime = 0 s

Time = 49s

smoothSolver:  Solving for Ux, Initial residual = 0.00882116, Final residual = 0.000766831, No Iterations 5
smoothSolver:  Solving for Uy, Initial residual = 0.107082, Final residual = 0.00860218, No Iterations 5
Pressure gradient source: uncorrected Ubar = 1.00214, pressure gradient = 0.746944
GAMG:  Solving for p, Initial residual = 0.00983387, Final residual = 0.000888333, No Iterations 28
time step continuity errors : sum local = 0.000163678, global = -5.24494e-18, cumulative = -8.56101e-17
Pressure gradient source: uncorrected Ubar = 1.00011, pressure gradient = 1.96304
smoothSolver:  Solving for omega, Initial residual = 0.0105383, Final residual = 0.000944655, No Iterations 5
smoothSolver:  Solving for k, Initial residual = 0.0112326, Final residual = 0.000791162, No Iterations 6
ExecutionTime = 0.112681 s  ClockTime = 0 s

Time = 50s

smoothSolver:  Solving for Ux, Initial residual = 0.00874608, Final residual = 0.000762519, No Iterations 5
smoothSolver:  Solving for Uy, Initial residual = 0.0983278, Final residual = 0.00831832, No Iterations 5
Pressure gradient source: uncorrected Ubar = 1.00202, pressure gradient = 0.71805
GAMG:  Solving for p, Initial residual = 0.0152302, Final residual = 0.00137689, No Iterations 19
time step continuity errors : sum local = 0.000138541, global = -2.30664e-17, cumulative = -1.08677e-16
Pressure gradient source: uncorrected Ubar = 1.00009, pressure gradient = 1.90466
smoothSolver:  Solving for omega, Initial residual = 0.00978181, Final residual = 0.000843546, No Iterations 5
smoothSolver:  Solving for k, Initial residual = 0.0106372, Final residual = 0.000783057, No Iterations 6
ExecutionTime = 0.115059 s  ClockTime = 0 s

Time = 51s

smoothSolver:  Solving for Ux, Initial residual = 0.0086818, Final residual = 0.000759529, No Iterations 5
smoothSolver:  Solving for Uy, Initial residual = 0.0866881, Final residual = 0.00724411, No Iterations 5
Pressure gradient source: uncorrected Ubar = 1.00202, pressure gradient = 0.621537
GAMG:  Solving for p, Initial residual = 0.024224, Final residual = 0.00180232, No Iterations 20
time step continuity errors : sum local = 8.20386e-05, global = 8.3348e-19, cumulative = -1.07843e-16
Pressure gradient source: uncorrected Ubar = 1.0001, pressure gradient = 1.83941
smoothSolver:  Solving for omega, Initial residual = 0.00970875, Final residual = 0.000882306, No Iterations 5
smoothSolver:  Solving for k, Initial residual = 0.00982735, Final residual = 0.000705445, No Iterations 6
ExecutionTime = 0.117477 s  ClockTime = 0 s

Time = 52s

smoothSolver:  Solving for Ux, Initial residual = 0.00862284, Final residual = 0.000756603, No Iterations 5
smoothSolver:  Solving for Uy, Initial residual = 0.0824405, Final residual = 0.00688692, No Iterations 5
Pressure gradient source: uncorrected Ubar = 1.00174, pressure gradient = 0.699194
GAMG:  Solving for p, Initial residual = 0.0570088, Final residual = 0.00528301, No Iterations 18
time step continuity errors : sum local = 8.42464e-05, global = 1.31409e-17, cumulative = -9.47022e-17
Pressure gradient source: uncorrected Ubar = 1.00006, pressure gradient = 1.79766
smoothSolver:  Solving for omega, Initial residual = 0.00930775, Final residual = 0.000865624, No Iterations 5
smoothSolver:  Solving for k, Initial residual = 0.00939236, Final residual = 0.000680182, No Iterations 6
ExecutionTime = 0.119828 s  ClockTime = 0 s

Time = 53s

smoothSolver:  Solving for Ux, Initial residual = 0.00856699, Final residual = 0.000753901, No Iterations 5
smoothSolver:  Solving for Uy, Initial residual = 0.078902, Final residual = 0.00644001, No Iterations 5
Pressure gradient source: uncorrected Ubar = 1.00167, pressure gradient = 0.675917
GAMG:  Solving for p, Initial residual = 0.0213, Final residual = 0.00187188, No Iterations 13
time step continuity errors : sum local = 5.15591e-05, global = -2.06092e-17, cumulative = -1.15311e-16
Pressure gradient source: uncorrected Ubar = 1.00006, pressure gradient = 1.7577
smoothSolver:  Solving for omega, Initial residual = 0.00885858, Final residual = 0.000810646, No Iterations 5
smoothSolver:  Solving for k, Initial residual = 0.00910558, Final residual = 0.000643292, No Iterations 6
ExecutionTime = 0.122046 s  ClockTime = 0 s

Time = 54s

smoothSolver:  Solving for Ux, Initial residual = 0.00851675, Final residual = 0.000751933, No Iterations 5
smoothSolver:  Solving for Uy, Initial residual = 0.0751129, Final residual = 0.0062076, No Iterations 5
Pressure gradient source: uncorrected Ubar = 1.00157, pressure gradient = 0.672048
GAMG:  Solving for p, Initial residual = 0.0152359, Final residual = 0.00146455, No Iterations 3
time step continuity errors : sum local = 5.12699e-05, global = 4.93801e-17, cumulative = -6.59313e-17
Pressure gradient source: uncorrected Ubar = 1.00005, pressure gradient = 1.72108
smoothSolver:  Solving for omega, Initial residual = 0.00866346, Final residual = 0.000816064, No Iterations 5
smoothSolver:  Solving for k, Initial residual = 0.00875046, Final residual = 0.000600001, No Iterations 6
ExecutionTime = 0.124009 s  ClockTime = 0 s

Time = 55s

smoothSolver:  Solving for Ux, Initial residual = 0.00847341, Final residual = 0.000750332, No Iterations 5
smoothSolver:  Solving for Uy, Initial residual = 0.0729394, Final residual = 0.00610543, No Iterations 5
Pressure gradient source: uncorrected Ubar = 1.00157, pressure gradient = 0.613639
GAMG:  Solving for p, Initial residual = 0.0176743, Final residual = 0.00173917, No Iterations 7
time step continuity errors : sum local = 5.54176e-05, global = 4.34842e-17, cumulative = -2.24472e-17
Pressure gradient source: uncorrected Ubar = 1.00006, pressure gradient = 1.67868
smoothSolver:  Solving for omega, Initial residual = 0.0083578, Final residual = 0.00077675, No Iterations 5
smoothSolver:  Solving for k, Initial residual = 0.00840863, Final residual = 0.000571996, No Iterations 6
ExecutionTime = 0.126131 s  ClockTime = 0 s

Time = 56s

smoothSolver:  Solving for Ux, Initial residual = 0.00843953, Final residual = 0.000749877, No Iterations 5
smoothSolver:  Solving for Uy, Initial residual = 0.0629418, Final residual = 0.00511019, No Iterations 5
Pressure gradient source: uncorrected Ubar = 1.00153, pressure gradient = 0.570671
GAMG:  Solving for p, Initial residual = 0.0165449, Final residual = 0.00143449, No Iterations 5
time step continuity errors : sum local = 4.04382e-05, global = 3.59202e-17, cumulative = 1.3473e-17
Pressure gradient source: uncorrected Ubar = 1.00006, pressure gradient = 1.63405
smoothSolver:  Solving for omega, Initial residual = 0.00824075, Final residual = 0.000798934, No Iterations 5
smoothSolver:  Solving for k, Initial residual = 0.00819437, Final residual = 0.000568265, No Iterations 6
ExecutionTime = 0.128161 s  ClockTime = 0 s

Time = 57s

smoothSolver:  Solving for Ux, Initial residual = 0.00840399, Final residual = 0.000749039, No Iterations 5
smoothSolver:  Solving for Uy, Initial residual = 0.0480751, Final residual = 0.00361607, No Iterations 5
Pressure gradient source: uncorrected Ubar = 1.00146, pressure gradient = 0.55794
GAMG:  Solving for p, Initial residual = 0.0158565, Final residual = 0.000868136, No Iterations 3
time step continuity errors : sum local = 2.14721e-05, global = 4.04384e-17, cumulative = 5.39114e-17
Pressure gradient source: uncorrected Ubar = 1.00006, pressure gradient = 1.59291
smoothSolver:  Solving for omega, Initial residual = 0.00800342, Final residual = 0.00078645, No Iterations 5
smoothSolver:  Solving for k, Initial residual = 0.00790683, Final residual = 0.000539598, No Iterations 6
ExecutionTime = 0.130084 s  ClockTime = 0 s

Time = 58s

smoothSolver:  Solving for Ux, Initial residual = 0.00837438, Final residual = 0.000748627, No Iterations 5
smoothSolver:  Solving for Uy, Initial residual = 0.0466036, Final residual = 0.00339688, No Iterations 5
Pressure gradient source: uncorrected Ubar = 1.00139, pressure gradient = 0.547919
GAMG:  Solving for p, Initial residual = 0.0204668, Final residual = 0.0017887, No Iterations 3
time step continuity errors : sum local = 3.08831e-05, global = 4.34792e-17, cumulative = 9.73906e-17
Pressure gradient source: uncorrected Ubar = 1.00005, pressure gradient = 1.55514
smoothSolver:  Solving for omega, Initial residual = 0.0078274, Final residual = 0.000780549, No Iterations 5
smoothSolver:  Solving for k, Initial residual = 0.00770047, Final residual = 0.000521112, No Iterations 6
ExecutionTime = 0.132109 s  ClockTime = 0 s

Time = 59s

smoothSolver:  Solving for Ux, Initial residual = 0.00834986, Final residual = 0.000748588, No Iterations 5
smoothSolver:  Solving for Uy, Initial residual = 0.0477046, Final residual = 0.00344888, No Iterations 5
Pressure gradient source: uncorrected Ubar = 1.00136, pressure gradient = 0.512832
GAMG:  Solving for p, Initial residual = 0.0208153, Final residual = 0.0020414, No Iterations 2
time step continuity errors : sum local = 2.41783e-05, global = 3.21343e-18, cumulative = 1.00604e-16
Pressure gradient source: uncorrected Ubar = 1.00005, pressure gradient = 1.51583
smoothSolver:  Solving for omega, Initial residual = 0.00751674, Final residual = 0.00073476, No Iterations 5
smoothSolver:  Solving for k, Initial residual = 0.00757774, Final residual = 0.000530238, No Iterations 6
ExecutionTime = 0.134006 s  ClockTime = 0 s

Time = 60s

smoothSolver:  Solving for Ux, Initial residual = 0.00833037, Final residual = 0.000749168, No Iterations 5
smoothSolver:  Solving for Uy, Initial residual = 0.0429636, Final residual = 0.00317456, No Iterations 5
Pressure gradient source: uncorrected Ubar = 1.00137, pressure gradient = 0.44916
GAMG:  Solving for p, Initial residual = 0.0231678, Final residual = 0.00198041, No Iterations 4
time step continuity errors : sum local = 1.79993e-05, global = -3.85666e-17, cumulative = 6.20374e-17
Pressure gradient source: uncorrected Ubar = 1.00006, pressure gradient = 1.4703
smoothSolver:  Solving for omega, Initial residual = 0.00742465, Final residual = 0.00049057, No Iterations 6
smoothSolver:  Solving for k, Initial residual = 0.00740971, Final residual = 0.000518866, No Iterations 6
ExecutionTime = 0.13609 s  ClockTime = 0 s

Time = 61s

smoothSolver:  Solving for Ux, Initial residual = 0.00830996, Final residual = 0.000749287, No Iterations 5
smoothSolver:  Solving for Uy, Initial residual = 0.0434771, Final residual = 0.00340557, No Iterations 5
Pressure gradient source: uncorrected Ubar = 1.00125, pressure gradient = 0.482259
GAMG:  Solving for p, Initial residual = 0.0257176, Final residual = 0.00228929, No Iterations 3
time step continuity errors : sum local = 1.8523e-05, global = 2.79953e-17, cumulative = 9.00327e-17
Pressure gradient source: uncorrected Ubar = 1.00004, pressure gradient = 1.43694
smoothSolver:  Solving for omega, Initial residual = 0.00711293, Final residual = 0.000469501, No Iterations 6
smoothSolver:  Solving for k, Initial residual = 0.00726966, Final residual = 0.000508126, No Iterations 6
ExecutionTime = 0.13802 s  ClockTime = 0 s

Time = 62s

smoothSolver:  Solving for Ux, Initial residual = 0.0082956, Final residual = 0.00074999, No Iterations 5
smoothSolver:  Solving for Uy, Initial residual = 0.0423942, Final residual = 0.00318855, No Iterations 5
Pressure gradient source: uncorrected Ubar = 1.00123, pressure gradient = 0.445946
GAMG:  Solving for p, Initial residual = 0.0348633, Final residual = 0.00344605, No Iterations 3
time step continuity errors : sum local = 2.10775e-05, global = -2.38054e-17, cumulative = 6.62272e-17
Pressure gradient source: uncorrected Ubar = 1.00004, pressure gradient = 1.40109
smoothSolver:  Solving for omega, Initial residual = 0.00681506, Final residual = 0.000442001, No Iterations 6
smoothSolver:  Solving for k, Initial residual = 0.00721053, Final residual = 0.00051838, No Iterations 6
ExecutionTime = 0.139954 s  ClockTime = 0 s

Time = 63s

smoothSolver:  Solving for Ux, Initial residual = 0.00828583, Final residual = 0.000751359, No Iterations 5
smoothSolver:  Solving for Uy, Initial residual = 0.040094, Final residual = 0.00304094, No Iterations 5
Pressure gradient source: uncorrected Ubar = 1.00122, pressure gradient = 0.400943
GAMG:  Solving for p, Initial residual = 0.0322359, Final residual = 0.00310105, No Iterations 3
time step continuity errors : sum local = 1.77309e-05, global = -4.79052e-17, cumulative = 1.8322e-17
Pressure gradient source: uncorrected Ubar = 1.00005, pressure gradient = 1.36157
smoothSolver:  Solving for omega, Initial residual = 0.00670858, Final residual = 0.000451778, No Iterations 6
smoothSolver:  Solving for k, Initial residual = 0.00715729, Final residual = 0.000520466, No Iterations 6
ExecutionTime = 0.141904 s  ClockTime = 0 s

Time = 64s

smoothSolver:  Solving for Ux, Initial residual = 0.00827422, Final residual = 0.000752333, No Iterations 5
smoothSolver:  Solving for Uy, Initial residual = 0.0428769, Final residual = 0.00380775, No Iterations 5
Pressure gradient source: uncorrected Ubar = 1.00115, pressure gradient = 0.408894
GAMG:  Solving for p, Initial residual = 0.0270227, Final residual = 0.00269173, No Iterations 7
time step continuity errors : sum local = 1.28967e-05, global = 2.07177e-17, cumulative = 3.90397e-17
Pressure gradient source: uncorrected Ubar = 1.00004, pressure gradient = 1.32873
smoothSolver:  Solving for omega, Initial residual = 0.0066161, Final residual = 0.00045317, No Iterations 6
smoothSolver:  Solving for k, Initial residual = 0.00709805, Final residual = 0.00051827, No Iterations 6
ExecutionTime = 0.143955 s  ClockTime = 0 s

Time = 65s

smoothSolver:  Solving for Ux, Initial residual = 0.00826523, Final residual = 0.00075349, No Iterations 5
smoothSolver:  Solving for Uy, Initial residual = 0.0421023, Final residual = 0.003764, No Iterations 5
Pressure gradient source: uncorrected Ubar = 1.00113, pressure gradient = 0.376173
GAMG:  Solving for p, Initial residual = 0.037279, Final residual = 0.00335066, No Iterations 9
time step continuity errors : sum local = 1.11802e-05, global = 9.01622e-18, cumulative = 4.80559e-17
Pressure gradient source: uncorrected Ubar = 1.00004, pressure gradient = 1.29406
smoothSolver:  Solving for omega, Initial residual = 0.00639749, Final residual = 0.000438127, No Iterations 6
smoothSolver:  Solving for k, Initial residual = 0.00706193, Final residual = 0.000523357, No Iterations 6
ExecutionTime = 0.146052 s  ClockTime = 0 s

Time = 66s

smoothSolver:  Solving for Ux, Initial residual = 0.00825957, Final residual = 0.000754932, No Iterations 5
smoothSolver:  Solving for Uy, Initial residual = 0.0395577, Final residual = 0.00342288, No Iterations 5
Pressure gradient source: uncorrected Ubar = 1.00111, pressure gradient = 0.345412
GAMG:  Solving for p, Initial residual = 0.0264343, Final residual = 0.00225587, No Iterations 14
time step continuity errors : sum local = 1.10745e-05, global = 3.3069e-17, cumulative = 8.11249e-17
Pressure gradient source: uncorrected Ubar = 1.00004, pressure gradient = 1.25823
smoothSolver:  Solving for omega, Initial residual = 0.00623985, Final residual = 0.000425658, No Iterations 6
smoothSolver:  Solving for k, Initial residual = 0.00701604, Final residual = 0.00051541, No Iterations 6
ExecutionTime = 0.148347 s  ClockTime = 0 s

Time = 67s

smoothSolver:  Solving for Ux, Initial residual = 0.0082592, Final residual = 0.000757071, No Iterations 5
smoothSolver:  Solving for Uy, Initial residual = 0.0381933, Final residual = 0.00338486, No Iterations 5
Pressure gradient source: uncorrected Ubar = 1.0011, pressure gradient = 0.308377
GAMG:  Solving for p, Initial residual = 0.0181508, Final residual = 0.00172819, No Iterations 15
time step continuity errors : sum local = 1.29857e-05, global = -2.82348e-17, cumulative = 5.28901e-17
Pressure gradient source: uncorrected Ubar = 1.00004, pressure gradient = 1.22027
smoothSolver:  Solving for omega, Initial residual = 0.00605763, Final residual = 0.000412833, No Iterations 6
smoothSolver:  Solving for k, Initial residual = 0.00706186, Final residual = 0.000529269, No Iterations 6
ExecutionTime = 0.150624 s  ClockTime = 0 s

Time = 68s

smoothSolver:  Solving for Ux, Initial residual = 0.00826044, Final residual = 0.000759559, No Iterations 5
smoothSolver:  Solving for Uy, Initial residual = 0.0465187, Final residual = 0.00446762, No Iterations 5
Pressure gradient source: uncorrected Ubar = 1.00108, pressure gradient = 0.273885
GAMG:  Solving for p, Initial residual = 0.0125803, Final residual = 0.00112296, No Iterations 16
time step continuity errors : sum local = 1.15014e-05, global = 7.49766e-17, cumulative = 1.27867e-16
Pressure gradient source: uncorrected Ubar = 1.00004, pressure gradient = 1.18108
smoothSolver:  Solving for omega, Initial residual = 0.00604076, Final residual = 0.000424222, No Iterations 6
smoothSolver:  Solving for k, Initial residual = 0.00706669, Final residual = 0.0005295, No Iterations 6
ExecutionTime = 0.152954 s  ClockTime = 0 s

Time = 69s

smoothSolver:  Solving for Ux, Initial residual = 0.00826082, Final residual = 0.000761802, No Iterations 5
smoothSolver:  Solving for Uy, Initial residual = 0.0446893, Final residual = 0.00443386, No Iterations 5
Pressure gradient source: uncorrected Ubar = 1.00101, pressure gradient = 0.281087
GAMG:  Solving for p, Initial residual = 0.00828953, Final residual = 0.000699448, No Iterations 11
time step continuity errors : sum local = 9.43299e-06, global = -1.83257e-18, cumulative = 1.26034e-16
Pressure gradient source: uncorrected Ubar = 1.00004, pressure gradient = 1.14851
smoothSolver:  Solving for omega, Initial residual = 0.00585142, Final residual = 0.000411073, No Iterations 6
smoothSolver:  Solving for k, Initial residual = 0.00713952, Final residual = 0.000544243, No Iterations 6
ExecutionTime = 0.155178 s  ClockTime = 0 s

Time = 70s

smoothSolver:  Solving for Ux, Initial residual = 0.00826287, Final residual = 0.000764162, No Iterations 5
smoothSolver:  Solving for Uy, Initial residual = 0.0392108, Final residual = 0.00366302, No Iterations 5
Pressure gradient source: uncorrected Ubar = 1.00101, pressure gradient = 0.240769
GAMG:  Solving for p, Initial residual = 0.00610436, Final residual = 0.000569205, No Iterations 6
time step continuity errors : sum local = 8.37944e-06, global = 6.67389e-18, cumulative = 1.32708e-16
Pressure gradient source: uncorrected Ubar = 1.00004, pressure gradient = 1.11263
smoothSolver:  Solving for omega, Initial residual = 0.0057509, Final residual = 0.000404812, No Iterations 6
smoothSolver:  Solving for k, Initial residual = 0.00719395, Final residual = 0.000549892, No Iterations 6
ExecutionTime = 0.157222 s  ClockTime = 0 s

Time = 71s

smoothSolver:  Solving for Ux, Initial residual = 0.00827064, Final residual = 0.000766946, No Iterations 5
smoothSolver:  Solving for Uy, Initial residual = 0.0352198, Final residual = 0.00310031, No Iterations 5
Pressure gradient source: uncorrected Ubar = 1.00097, pressure gradient = 0.234404
GAMG:  Solving for p, Initial residual = 0.00522031, Final residual = 0.000496093, No Iterations 6
time step continuity errors : sum local = 8.24592e-06, global = 2.64131e-17, cumulative = 1.59121e-16
Pressure gradient source: uncorrected Ubar = 1.00004, pressure gradient = 1.08044
smoothSolver:  Solving for omega, Initial residual = 0.00566479, Final residual = 0.000407395, No Iterations 6
smoothSolver:  Solving for k, Initial residual = 0.00728656, Final residual = 0.000559507, No Iterations 6
ExecutionTime = 0.159239 s  ClockTime = 0 s

Time = 72s

smoothSolver:  Solving for Ux, Initial residual = 0.00827933, Final residual = 0.00076959, No Iterations 5
smoothSolver:  Solving for Uy, Initial residual = 0.0361104, Final residual = 0.00314925, No Iterations 5
Pressure gradient source: uncorrected Ubar = 1.00094, pressure gradient = 0.21845
GAMG:  Solving for p, Initial residual = 0.00376343, Final residual = 0.000366983, No Iterations 10
time step continuity errors : sum local = 6.7346e-06, global = -2.004e-17, cumulative = 1.39081e-16
Pressure gradient source: uncorrected Ubar = 1.00003, pressure gradient = 1.0494
smoothSolver:  Solving for omega, Initial residual = 0.00550774, Final residual = 0.000390008, No Iterations 6
smoothSolver:  Solving for k, Initial residual = 0.00744411, Final residual = 0.000569623, No Iterations 6
ExecutionTime = 0.161421 s  ClockTime = 0 s

Time = 73s

smoothSolver:  Solving for Ux, Initial residual = 0.00829132, Final residual = 0.000772695, No Iterations 5
smoothSolver:  Solving for Uy, Initial residual = 0.037498, Final residual = 0.00319401, No Iterations 5
Pressure gradient source: uncorrected Ubar = 1.00094, pressure gradient = 0.180336
GAMG:  Solving for p, Initial residual = 0.00560434, Final residual = 0.000404095, No Iterations 4
time step continuity errors : sum local = 7.02435e-06, global = -2.01501e-17, cumulative = 1.18931e-16
Pressure gradient source: uncorrected Ubar = 1.00004, pressure gradient = 1.01518
smoothSolver:  Solving for omega, Initial residual = 0.00544312, Final residual = 0.000391346, No Iterations 6
smoothSolver:  Solving for k, Initial residual = 0.00764773, Final residual = 0.000583746, No Iterations 6
ExecutionTime = 0.163381 s  ClockTime = 0 s

Time = 74s

smoothSolver:  Solving for Ux, Initial residual = 0.00830276, Final residual = 0.00077568, No Iterations 5
smoothSolver:  Solving for Uy, Initial residual = 0.0352688, Final residual = 0.00348872, No Iterations 5
Pressure gradient source: uncorrected Ubar = 1.0009, pressure gradient = 0.176337
GAMG:  Solving for p, Initial residual = 0.00297412, Final residual = 0.000275491, No Iterations 3
time step continuity errors : sum local = 5.00692e-06, global = 1.64299e-17, cumulative = 1.35361e-16
Pressure gradient source: uncorrected Ubar = 1.00003, pressure gradient = 0.984784
smoothSolver:  Solving for omega, Initial residual = 0.00537847, Final residual = 0.000393422, No Iterations 6
smoothSolver:  Solving for k, Initial residual = 0.00781129, Final residual = 0.000591955, No Iterations 6
ExecutionTime = 0.165359 s  ClockTime = 0 s

Time = 75s

smoothSolver:  Solving for Ux, Initial residual = 0.00831514, Final residual = 0.000778689, No Iterations 5
smoothSolver:  Solving for Uy, Initial residual = 0.0379543, Final residual = 0.00372298, No Iterations 5
Pressure gradient source: uncorrected Ubar = 1.00088, pressure gradient = 0.155548
GAMG:  Solving for p, Initial residual = 0.00293722, Final residual = 0.000285254, No Iterations 5
time step continuity errors : sum local = 5.55008e-06, global = 3.89178e-17, cumulative = 1.74279e-16
Pressure gradient source: uncorrected Ubar = 1.00003, pressure gradient = 0.954371
smoothSolver:  Solving for omega, Initial residual = 0.00524769, Final residual = 0.0003809, No Iterations 6
smoothSolver:  Solving for k, Initial residual = 0.00801924, Final residual = 0.000606871, No Iterations 6
ExecutionTime = 0.167353 s  ClockTime = 0 s

Time = 76s

smoothSolver:  Solving for Ux, Initial residual = 0.00832993, Final residual = 0.000781867, No Iterations 5
smoothSolver:  Solving for Uy, Initial residual = 0.0351029, Final residual = 0.00231424, No Iterations 6
Pressure gradient source: uncorrected Ubar = 1.00087, pressure gradient = 0.127995
GAMG:  Solving for p, Initial residual = 0.00270041, Final residual = 0.000264775, No Iterations 3
time step continuity errors : sum local = 5.12407e-06, global = 3.49581e-17, cumulative = 2.09237e-16
Pressure gradient source: uncorrected Ubar = 1.00003, pressure gradient = 0.922682
smoothSolver:  Solving for omega, Initial residual = 0.00520622, Final residual = 0.000385478, No Iterations 6
smoothSolver:  Solving for k, Initial residual = 0.00823479, Final residual = 0.000622594, No Iterations 6
ExecutionTime = 0.16947 s  ClockTime = 0 s

Time = 77s

smoothSolver:  Solving for Ux, Initial residual = 0.00834551, Final residual = 0.000784848, No Iterations 5
smoothSolver:  Solving for Uy, Initial residual = 0.0292576, Final residual = 0.0029043, No Iterations 5
Pressure gradient source: uncorrected Ubar = 1.00081, pressure gradient = 0.143273
GAMG:  Solving for p, Initial residual = 0.00325654, Final residual = 0.000278707, No Iterations 5
time step continuity errors : sum local = 6.10033e-06, global = 5.28896e-17, cumulative = 2.62126e-16
Pressure gradient source: uncorrected Ubar = 1.00003, pressure gradient = 0.898096
smoothSolver:  Solving for omega, Initial residual = 0.005141, Final residual = 0.000385691, No Iterations 6
smoothSolver:  Solving for k, Initial residual = 0.00838308, Final residual = 0.00063543, No Iterations 6
ExecutionTime = 0.171467 s  ClockTime = 0 s

Time = 78s

smoothSolver:  Solving for Ux, Initial residual = 0.00836256, Final residual = 0.000787962, No Iterations 5
smoothSolver:  Solving for Uy, Initial residual = 0.0240327, Final residual = 0.00224424, No Iterations 5
Pressure gradient source: uncorrected Ubar = 1.0008, pressure gradient = 0.12194
GAMG:  Solving for p, Initial residual = 0.00251725, Final residual = 0.000220124, No Iterations 14
time step continuity errors : sum local = 5.61123e-06, global = 6.45269e-18, cumulative = 2.68579e-16
Pressure gradient source: uncorrected Ubar = 1.00003, pressure gradient = 0.872325
smoothSolver:  Solving for omega, Initial residual = 0.00504767, Final residual = 0.000375424, No Iterations 6
smoothSolver:  Solving for k, Initial residual = 0.00857662, Final residual = 0.000659138, No Iterations 6
ExecutionTime = 0.173782 s  ClockTime = 0 s

Time = 79s

smoothSolver:  Solving for Ux, Initial residual = 0.00838162, Final residual = 0.00079131, No Iterations 5
smoothSolver:  Solving for Uy, Initial residual = 0.0198389, Final residual = 0.00166785, No Iterations 5
Pressure gradient source: uncorrected Ubar = 1.00079, pressure gradient = 0.101611
GAMG:  Solving for p, Initial residual = 0.0026524, Final residual = 0.000252611, No Iterations 11
time step continuity errors : sum local = 7.12203e-06, global = 3.90143e-18, cumulative = 2.72481e-16
Pressure gradient source: uncorrected Ubar = 1.00003, pressure gradient = 0.845811
smoothSolver:  Solving for omega, Initial residual = 0.0049897, Final residual = 0.000372959, No Iterations 6
smoothSolver:  Solving for k, Initial residual = 0.00873099, Final residual = 0.000674752, No Iterations 6
ExecutionTime = 0.175941 s  ClockTime = 0 s

Time = 80s

smoothSolver:  Solving for Ux, Initial residual = 0.00840133, Final residual = 0.000794691, No Iterations 5
smoothSolver:  Solving for Uy, Initial residual = 0.0182396, Final residual = 0.00151553, No Iterations 5
Pressure gradient source: uncorrected Ubar = 1.00077, pressure gradient = 0.0899012
GAMG:  Solving for p, Initial residual = 0.00190447, Final residual = 0.000187469, No Iterations 6
time step continuity errors : sum local = 5.01296e-06, global = -1.77065e-17, cumulative = 2.54774e-16
Pressure gradient source: uncorrected Ubar = 1.00003, pressure gradient = 0.820365
smoothSolver:  Solving for omega, Initial residual = 0.00491981, Final residual = 0.000370685, No Iterations 6
smoothSolver:  Solving for k, Initial residual = 0.00889, Final residual = 0.000692744, No Iterations 6
ExecutionTime = 0.177956 s  ClockTime = 0 s

Time = 81s

smoothSolver:  Solving for Ux, Initial residual = 0.00842335, Final residual = 0.000798126, No Iterations 5
smoothSolver:  Solving for Uy, Initial residual = 0.0190017, Final residual = 0.00126177, No Iterations 6
Pressure gradient source: uncorrected Ubar = 1.00076, pressure gradient = 0.0671876
GAMG:  Solving for p, Initial residual = 0.00142154, Final residual = 7.62618e-05, No Iterations 3
time step continuity errors : sum local = 1.93912e-06, global = -2.13673e-17, cumulative = 2.33407e-16
Pressure gradient source: uncorrected Ubar = 1.00003, pressure gradient = 0.793707
smoothSolver:  Solving for omega, Initial residual = 0.00488364, Final residual = 0.000373149, No Iterations 6
smoothSolver:  Solving for k, Initial residual = 0.00905788, Final residual = 0.000713025, No Iterations 6
ExecutionTime = 0.1799 s  ClockTime = 0 s

Time = 82s

smoothSolver:  Solving for Ux, Initial residual = 0.00844579, Final residual = 0.000801356, No Iterations 5
smoothSolver:  Solving for Uy, Initial residual = 0.0188826, Final residual = 0.0012577, No Iterations 6
Pressure gradient source: uncorrected Ubar = 1.00072, pressure gradient = 0.0777104
GAMG:  Solving for p, Initial residual = 0.00173828, Final residual = 0.000172436, No Iterations 5
time step continuity errors : sum local = 4.67066e-06, global = 3.79174e-17, cumulative = 2.71324e-16
Pressure gradient source: uncorrected Ubar = 1.00002, pressure gradient = 0.772458
smoothSolver:  Solving for omega, Initial residual = 0.00482226, Final residual = 0.000368428, No Iterations 6
smoothSolver:  Solving for k, Initial residual = 0.00921456, Final residual = 0.000734567, No Iterations 6
ExecutionTime = 0.181886 s  ClockTime = 0 s

Time = 83s

smoothSolver:  Solving for Ux, Initial residual = 0.00847002, Final residual = 0.000804758, No Iterations 5
smoothSolver:  Solving for Uy, Initial residual = 0.0166771, Final residual = 0.00160842, No Iterations 5
Pressure gradient source: uncorrected Ubar = 1.0007, pressure gradient = 0.0710097
GAMG:  Solving for p, Initial residual = 0.00161829, Final residual = 0.000151771, No Iterations 9
time step continuity errors : sum local = 4.53558e-06, global = -2.72541e-17, cumulative = 2.4407e-16
Pressure gradient source: uncorrected Ubar = 1.00002, pressure gradient = 0.752274
smoothSolver:  Solving for omega, Initial residual = 0.00477179, Final residual = 0.000368041, No Iterations 6
smoothSolver:  Solving for k, Initial residual = 0.00942296, Final residual = 0.000757389, No Iterations 6
ExecutionTime = 0.184001 s  ClockTime = 0 s

Time = 84s

smoothSolver:  Solving for Ux, Initial residual = 0.00849582, Final residual = 0.000808357, No Iterations 5
smoothSolver:  Solving for Uy, Initial residual = 0.01282, Final residual = 0.00113747, No Iterations 5
Pressure gradient source: uncorrected Ubar = 1.00069, pressure gradient = 0.0507597
GAMG:  Solving for p, Initial residual = 0.00127329, Final residual = 0.000117704, No Iterations 13
time step continuity errors : sum local = 3.64595e-06, global = -1.41666e-17, cumulative = 2.29903e-16
Pressure gradient source: uncorrected Ubar = 1.00002, pressure gradient = 0.73036
smoothSolver:  Solving for omega, Initial residual = 0.00471201, Final residual = 0.000363646, No Iterations 6
smoothSolver:  Solving for k, Initial residual = 0.00965126, Final residual = 0.000781859, No Iterations 6
ExecutionTime = 0.18621 s  ClockTime = 0 s

Time = 85s

smoothSolver:  Solving for Ux, Initial residual = 0.00852285, Final residual = 0.00081215, No Iterations 5
smoothSolver:  Solving for Uy, Initial residual = 0.0140933, Final residual = 0.00134576, No Iterations 5
Pressure gradient source: uncorrected Ubar = 1.00068, pressure gradient = 0.0398247
GAMG:  Solving for p, Initial residual = 0.0011229, Final residual = 0.000106285, No Iterations 16
time step continuity errors : sum local = 3.27207e-06, global = -3.21144e-17, cumulative = 1.97789e-16
Pressure gradient source: uncorrected Ubar = 1.00002, pressure gradient = 0.708886
smoothSolver:  Solving for omega, Initial residual = 0.0046692, Final residual = 0.000362447, No Iterations 6
smoothSolver:  Solving for k, Initial residual = 0.00989331, Final residual = 0.000803937, No Iterations 6
ExecutionTime = 0.188507 s  ClockTime = 0 s

Time = 86s

smoothSolver:  Solving for Ux, Initial residual = 0.0085505, Final residual = 0.000815828, No Iterations 5
smoothSolver:  Solving for Uy, Initial residual = 0.0112069, Final residual = 0.00103329, No Iterations 5
Pressure gradient source: uncorrected Ubar = 1.00065, pressure gradient = 0.0358918
GAMG:  Solving for p, Initial residual = 0.00146686, Final residual = 0.000125209, No Iterations 11
time step continuity errors : sum local = 3.82436e-06, global = -8.74604e-18, cumulative = 1.89043e-16
Pressure gradient source: uncorrected Ubar = 1.00002, pressure gradient = 0.68915
smoothSolver:  Solving for omega, Initial residual = 0.0046436, Final residual = 0.000367379, No Iterations 6
smoothSolver:  Solving for k, Initial residual = 0.0101566, Final residual = 0.000833633, No Iterations 6
ExecutionTime = 0.190686 s  ClockTime = 0 s

Time = 87s

smoothSolver:  Solving for Ux, Initial residual = 0.00858008, Final residual = 0.000819594, No Iterations 5
smoothSolver:  Solving for Uy, Initial residual = 0.0109499, Final residual = 0.000969396, No Iterations 5
Pressure gradient source: uncorrected Ubar = 1.00063, pressure gradient = 0.0332812
GAMG:  Solving for p, Initial residual = 0.00131062, Final residual = 0.000128319, No Iterations 11
time step continuity errors : sum local = 3.87666e-06, global = -8.45339e-18, cumulative = 1.8059e-16
Pressure gradient source: uncorrected Ubar = 1.00002, pressure gradient = 0.671093
smoothSolver:  Solving for omega, Initial residual = 0.00459196, Final residual = 0.000361179, No Iterations 6
smoothSolver:  Solving for k, Initial residual = 0.0104408, Final residual = 0.000858944, No Iterations 6
ExecutionTime = 0.192855 s  ClockTime = 0 s

Time = 88s

smoothSolver:  Solving for Ux, Initial residual = 0.00861163, Final residual = 0.000823584, No Iterations 5
smoothSolver:  Solving for Uy, Initial residual = 0.00991704, Final residual = 0.00088197, No Iterations 5
Pressure gradient source: uncorrected Ubar = 1.00062, pressure gradient = 0.0298404
GAMG:  Solving for p, Initial residual = 0.00116448, Final residual = 9.78414e-05, No Iterations 15
time step continuity errors : sum local = 3.04257e-06, global = 3.233e-17, cumulative = 2.1292e-16
Pressure gradient source: uncorrected Ubar = 1.00002, pressure gradient = 0.654244
smoothSolver:  Solving for omega, Initial residual = 0.00454211, Final residual = 0.000357693, No Iterations 6
smoothSolver:  Solving for k, Initial residual = 0.0107374, Final residual = 0.00088976, No Iterations 6
ExecutionTime = 0.195118 s  ClockTime = 0 s

Time = 89s

smoothSolver:  Solving for Ux, Initial residual = 0.00864452, Final residual = 0.00082773, No Iterations 5
smoothSolver:  Solving for Uy, Initial residual = 0.00926969, Final residual = 0.000618151, No Iterations 6
Pressure gradient source: uncorrected Ubar = 1.00061, pressure gradient = 0.0162026
GAMG:  Solving for p, Initial residual = 0.000942848, Final residual = 9.22031e-05, No Iterations 16
time step continuity errors : sum local = 2.78498e-06, global = 8.33054e-19, cumulative = 2.13753e-16
Pressure gradient source: uncorrected Ubar = 1.00002, pressure gradient = 0.636382
smoothSolver:  Solving for omega, Initial residual = 0.00452456, Final residual = 0.000361825, No Iterations 6
smoothSolver:  Solving for k, Initial residual = 0.0110262, Final residual = 0.000915955, No Iterations 6
ExecutionTime = 0.197445 s  ClockTime = 0 s

Time = 90s

smoothSolver:  Solving for Ux, Initial residual = 0.00867691, Final residual = 0.000831759, No Iterations 5
smoothSolver:  Solving for Uy, Initial residual = 0.00847952, Final residual = 0.000830705, No Iterations 5
[...]
smoothSolver:  Solving for omega, Initial residual = 5.71786e-06, Final residual = 5.71786e-06, No Iterations 0
smoothSolver:  Solving for k, Initial residual = 1.09102e-05, Final residual = 6.6669e-06, No Iterations 1
ExecutionTime = 3.08082 s  ClockTime = 3 s

Time = 1434s

smoothSolver:  Solving for Ux, Initial residual = 1.85575e-06, Final residual = 1.85575e-06, No Iterations 0
smoothSolver:  Solving for Uy, Initial residual = 0.000163487, Final residual = 1.12496e-05, No Iterations 3
Pressure gradient source: uncorrected Ubar = 1, pressure gradient = 0.0033443
GAMG:  Solving for p, Initial residual = 1.75644e-05, Final residual = 1.5658e-06, No Iterations 5
time step continuity errors : sum local = 3.89797e-11, global = -5.20691e-19, cumulative = 7.03895e-17
Pressure gradient source: uncorrected Ubar = 1, pressure gradient = 0.0033443
smoothSolver:  Solving for omega, Initial residual = 5.71908e-06, Final residual = 5.71908e-06, No Iterations 0
smoothSolver:  Solving for k, Initial residual = 1.06731e-05, Final residual = 6.3272e-06, No Iterations 1
ExecutionTime = 3.08273 s  ClockTime = 3 s

Time = 1435s

smoothSolver:  Solving for Ux, Initial residual = 1.87167e-06, Final residual = 1.87167e-06, No Iterations 0
smoothSolver:  Solving for Uy, Initial residual = 0.000207195, Final residual = 1.69352e-05, No Iterations 3
Pressure gradient source: uncorrected Ubar = 1, pressure gradient = 0.0033443
GAMG:  Solving for p, Initial residual = 1.95722e-05, Final residual = 1.94144e-06, No Iterations 4
time step continuity errors : sum local = 4.4544e-11, global = 2.77952e-18, cumulative = 7.3169e-17
Pressure gradient source: uncorrected Ubar = 1, pressure gradient = 0.0033443
smoothSolver:  Solving for omega, Initial residual = 5.72031e-06, Final residual = 5.72031e-06, No Iterations 0
smoothSolver:  Solving for k, Initial residual = 1.07718e-05, Final residual = 6.57391e-06, No Iterations 1
ExecutionTime = 3.0846 s  ClockTime = 3 s

Time = 1436s

smoothSolver:  Solving for Ux, Initial residual = 1.88742e-06, Final residual = 1.88742e-06, No Iterations 0
smoothSolver:  Solving for Uy, Initial residual = 0.000237889, Final residual = 1.85888e-05, No Iterations 3
Pressure gradient source: uncorrected Ubar = 1, pressure gradient = 0.0033443
GAMG:  Solving for p, Initial residual = 2.07204e-05, Final residual = 2.02036e-06, No Iterations 7
time step continuity errors : sum local = 5.51501e-11, global = 3.8436e-18, cumulative = 7.70126e-17
Pressure gradient source: uncorrected Ubar = 1, pressure gradient = 0.00334431
smoothSolver:  Solving for omega, Initial residual = 5.72154e-06, Final residual = 5.72154e-06, No Iterations 0
smoothSolver:  Solving for k, Initial residual = 1.05758e-05, Final residual = 6.31125e-06, No Iterations 1
ExecutionTime = 3.08656 s  ClockTime = 3 s

Time = 1437s

smoothSolver:  Solving for Ux, Initial residual = 1.903e-06, Final residual = 1.903e-06, No Iterations 0
smoothSolver:  Solving for Uy, Initial residual = 0.000196488, Final residual = 1.00513e-05, No Iterations 3
Pressure gradient source: uncorrected Ubar = 1, pressure gradient = 0.00334431
GAMG:  Solving for p, Initial residual = 1.95173e-05, Final residual = 1.85858e-06, No Iterations 3
time step continuity errors : sum local = 4.42967e-11, global = -1.11817e-18, cumulative = 7.58945e-17
Pressure gradient source: uncorrected Ubar = 1, pressure gradient = 0.00334431
smoothSolver:  Solving for omega, Initial residual = 5.72276e-06, Final residual = 5.72276e-06, No Iterations 0
smoothSolver:  Solving for k, Initial residual = 1.06666e-05, Final residual = 6.51443e-06, No Iterations 1
ExecutionTime = 3.0884 s  ClockTime = 3 s

Time = 1438s

smoothSolver:  Solving for Ux, Initial residual = 1.91842e-06, Final residual = 1.91842e-06, No Iterations 0
smoothSolver:  Solving for Uy, Initial residual = 0.000149684, Final residual = 1.042e-05, No Iterations 3
Pressure gradient source: uncorrected Ubar = 1, pressure gradient = 0.00334431
GAMG:  Solving for p, Initial residual = 1.60159e-05, Final residual = 1.58781e-06, No Iterations 5
time step continuity errors : sum local = 4.01515e-11, global = 9.73211e-20, cumulative = 7.59918e-17
Pressure gradient source: uncorrected Ubar = 1, pressure gradient = 0.00334432
smoothSolver:  Solving for omega, Initial residual = 5.72399e-06, Final residual = 5.72399e-06, No Iterations 0
smoothSolver:  Solving for k, Initial residual = 1.04694e-05, Final residual = 6.2381e-06, No Iterations 1
ExecutionTime = 3.0903 s  ClockTime = 3 s

Time = 1439s

smoothSolver:  Solving for Ux, Initial residual = 1.93367e-06, Final residual = 1.93367e-06, No Iterations 0
smoothSolver:  Solving for Uy, Initial residual = 0.000197319, Final residual = 1.49253e-05, No Iterations 3
Pressure gradient source: uncorrected Ubar = 1, pressure gradient = 0.00334432
GAMG:  Solving for p, Initial residual = 1.95269e-05, Final residual = 1.74061e-06, No Iterations 6
time step continuity errors : sum local = 3.90152e-11, global = -1.73625e-17, cumulative = 5.86293e-17
Pressure gradient source: uncorrected Ubar = 1, pressure gradient = 0.00334432
smoothSolver:  Solving for omega, Initial residual = 5.72521e-06, Final residual = 5.72521e-06, No Iterations 0
smoothSolver:  Solving for k, Initial residual = 1.05391e-05, Final residual = 6.44497e-06, No Iterations 1
ExecutionTime = 3.09223 s  ClockTime = 3 s

Time = 1440s

smoothSolver:  Solving for Ux, Initial residual = 1.94876e-06, Final residual = 1.94876e-06, No Iterations 0
smoothSolver:  Solving for Uy, Initial residual = 0.000191896, Final residual = 1.26388e-05, No Iterations 3
Pressure gradient source: uncorrected Ubar = 1, pressure gradient = 0.00334432
GAMG:  Solving for p, Initial residual = 1.77115e-05, Final residual = 1.6518e-06, No Iterations 7
time step continuity errors : sum local = 4.43865e-11, global = 7.40807e-18, cumulative = 6.60374e-17
Pressure gradient source: uncorrected Ubar = 1, pressure gradient = 0.00334432
smoothSolver:  Solving for omega, Initial residual = 5.72643e-06, Final residual = 5.72643e-06, No Iterations 0
smoothSolver:  Solving for k, Initial residual = 1.03368e-05, Final residual = 6.15186e-06, No Iterations 1
ExecutionTime = 3.0942 s  ClockTime = 3 s

Time = 1441s

smoothSolver:  Solving for Ux, Initial residual = 1.9637e-06, Final residual = 1.9637e-06, No Iterations 0
smoothSolver:  Solving for Uy, Initial residual = 0.00018996, Final residual = 1.19652e-05, No Iterations 3
Pressure gradient source: uncorrected Ubar = 1, pressure gradient = 0.00334432
GAMG:  Solving for p, Initial residual = 1.80335e-05, Final residual = 1.63984e-06, No Iterations 6
time step continuity errors : sum local = 3.62261e-11, global = 4.29864e-18, cumulative = 7.0336e-17
Pressure gradient source: uncorrected Ubar = 1, pressure gradient = 0.00334433
smoothSolver:  Solving for omega, Initial residual = 5.72765e-06, Final residual = 5.72765e-06, No Iterations 0
smoothSolver:  Solving for k, Initial residual = 1.04171e-05, Final residual = 6.35425e-06, No Iterations 1
ExecutionTime = 3.09615 s  ClockTime = 3 s

Time = 1442s

smoothSolver:  Solving for Ux, Initial residual = 1.97846e-06, Final residual = 1.97846e-06, No Iterations 0
smoothSolver:  Solving for Uy, Initial residual = 0.000174832, Final residual = 1.38414e-05, No Iterations 3
Pressure gradient source: uncorrected Ubar = 1, pressure gradient = 0.00334433
GAMG:  Solving for p, Initial residual = 1.42623e-05, Final residual = 1.29566e-06, No Iterations 8
time step continuity errors : sum local = 2.71161e-11, global = -1.3242e-18, cumulative = 6.90118e-17
Pressure gradient source: uncorrected Ubar = 1, pressure gradient = 0.00334433
smoothSolver:  Solving for omega, Initial residual = 5.72887e-06, Final residual = 5.72887e-06, No Iterations 0
smoothSolver:  Solving for k, Initial residual = 1.02371e-05, Final residual = 6.11363e-06, No Iterations 1
ExecutionTime = 3.09816 s  ClockTime = 3 s

Time = 1443s

smoothSolver:  Solving for Ux, Initial residual = 1.99307e-06, Final residual = 1.99307e-06, No Iterations 0
smoothSolver:  Solving for Uy, Initial residual = 0.000196311, Final residual = 1.36227e-05, No Iterations 3
Pressure gradient source: uncorrected Ubar = 1, pressure gradient = 0.00334433
GAMG:  Solving for p, Initial residual = 1.99311e-05, Final residual = 1.98823e-06, No Iterations 3
time step continuity errors : sum local = 4.76036e-11, global = -1.19769e-17, cumulative = 5.7035e-17
Pressure gradient source: uncorrected Ubar = 1, pressure gradient = 0.00334433
smoothSolver:  Solving for omega, Initial residual = 5.73009e-06, Final residual = 5.73009e-06, No Iterations 0
smoothSolver:  Solving for k, Initial residual = 1.02438e-05, Final residual = 6.21736e-06, No Iterations 1
ExecutionTime = 3.10004 s  ClockTime = 3 s

Time = 1444s

smoothSolver:  Solving for Ux, Initial residual = 2.00751e-06, Final residual = 2.00751e-06, No Iterations 0
smoothSolver:  Solving for Uy, Initial residual = 0.00024208, Final residual = 1.94391e-05, No Iterations 3
Pressure gradient source: uncorrected Ubar = 1, pressure gradient = 0.00334433
GAMG:  Solving for p, Initial residual = 1.99317e-05, Final residual = 1.90219e-06, No Iterations 6
time step continuity errors : sum local = 4.28919e-11, global = -1.09819e-18, cumulative = 5.59368e-17
Pressure gradient source: uncorrected Ubar = 1, pressure gradient = 0.00334434
smoothSolver:  Solving for omega, Initial residual = 5.73131e-06, Final residual = 5.73131e-06, No Iterations 0
smoothSolver:  Solving for k, Initial residual = 1.00768e-05, Final residual = 5.97788e-06, No Iterations 1
ExecutionTime = 3.10199 s  ClockTime = 3 s

Time = 1445s

smoothSolver:  Solving for Ux, Initial residual = 2.02178e-06, Final residual = 2.02178e-06, No Iterations 0
smoothSolver:  Solving for Uy, Initial residual = 0.000268254, Final residual = 2.30943e-05, No Iterations 3
Pressure gradient source: uncorrected Ubar = 1, pressure gradient = 0.00334434
GAMG:  Solving for p, Initial residual = 2.40997e-05, Final residual = 2.26182e-06, No Iterations 6
time step continuity errors : sum local = 5.07753e-11, global = 3.7599e-18, cumulative = 5.96967e-17
Pressure gradient source: uncorrected Ubar = 1, pressure gradient = 0.00334434
smoothSolver:  Solving for omega, Initial residual = 5.73252e-06, Final residual = 5.73252e-06, No Iterations 0
smoothSolver:  Solving for k, Initial residual = 1.02432e-05, Final residual = 6.31447e-06, No Iterations 1
ExecutionTime = 3.10394 s  ClockTime = 3 s

Time = 1446s

smoothSolver:  Solving for Ux, Initial residual = 2.03589e-06, Final residual = 2.03589e-06, No Iterations 0
smoothSolver:  Solving for Uy, Initial residual = 0.000302182, Final residual = 2.04316e-05, No Iterations 3
Pressure gradient source: uncorrected Ubar = 1, pressure gradient = 0.00334434
GAMG:  Solving for p, Initial residual = 2.90294e-05, Final residual = 2.53968e-06, No Iterations 4
time step continuity errors : sum local = 5.96088e-11, global = 1.29492e-18, cumulative = 6.09916e-17
Pressure gradient source: uncorrected Ubar = 1, pressure gradient = 0.00334435
smoothSolver:  Solving for omega, Initial residual = 5.73374e-06, Final residual = 5.73374e-06, No Iterations 0
smoothSolver:  Solving for k, Initial residual = 1.00539e-05, Final residual = 6.05266e-06, No Iterations 1
ExecutionTime = 3.10581 s  ClockTime = 3 s

Time = 1447s

smoothSolver:  Solving for Ux, Initial residual = 2.04984e-06, Final residual = 2.04984e-06, No Iterations 0
smoothSolver:  Solving for Uy, Initial residual = 0.000219641, Final residual = 1.26143e-05, No Iterations 3
Pressure gradient source: uncorrected Ubar = 1, pressure gradient = 0.00334435
GAMG:  Solving for p, Initial residual = 2.25969e-05, Final residual = 2.13309e-06, No Iterations 7
time step continuity errors : sum local = 5.45295e-11, global = 4.48416e-18, cumulative = 6.54758e-17
Pressure gradient source: uncorrected Ubar = 1, pressure gradient = 0.00334435
smoothSolver:  Solving for omega, Initial residual = 5.73496e-06, Final residual = 5.73496e-06, No Iterations 0
smoothSolver:  Solving for k, Initial residual = 1.00349e-05, Final residual = 6.12838e-06, No Iterations 1
ExecutionTime = 3.10777 s  ClockTime = 3 s

Time = 1448s

smoothSolver:  Solving for Ux, Initial residual = 2.06363e-06, Final residual = 2.06363e-06, No Iterations 0
smoothSolver:  Solving for Uy, Initial residual = 0.000285317, Final residual = 1.64099e-05, No Iterations 3
Pressure gradient source: uncorrected Ubar = 1, pressure gradient = 0.00334435
GAMG:  Solving for p, Initial residual = 2.92304e-05, Final residual = 2.46658e-06, No Iterations 3
time step continuity errors : sum local = 5.83015e-11, global = 7.33709e-19, cumulative = 6.62095e-17
Pressure gradient source: uncorrected Ubar = 1, pressure gradient = 0.00334435
smoothSolver:  Solving for omega, Initial residual = 5.73617e-06, Final residual = 5.73617e-06, No Iterations 0
smoothSolver:  Solving for k, Initial residual = 9.9258e-06, Final residual = 9.9258e-06, No Iterations 0
ExecutionTime = 3.1096 s  ClockTime = 3 s

Time = 1449s

smoothSolver:  Solving for Ux, Initial residual = 2.05841e-06, Final residual = 2.05841e-06, No Iterations 0
smoothSolver:  Solving for Uy, Initial residual = 0.000229651, Final residual = 1.20466e-05, No Iterations 3
Pressure gradient source: uncorrected Ubar = 1, pressure gradient = 0.00334435
GAMG:  Solving for p, Initial residual = 2.49732e-05, Final residual = 1.87975e-06, No Iterations 3
time step continuity errors : sum local = 4.44789e-11, global = 1.08859e-18, cumulative = 6.72981e-17
Pressure gradient source: uncorrected Ubar = 1, pressure gradient = 0.00334436
smoothSolver:  Solving for omega, Initial residual = 5.73726e-06, Final residual = 5.73726e-06, No Iterations 0
smoothSolver:  Solving for k, Initial residual = 9.88857e-06, Final residual = 9.88857e-06, No Iterations 0
ExecutionTime = 3.11144 s  ClockTime = 3 s

Time = 1450s

smoothSolver:  Solving for Ux, Initial residual = 2.05329e-06, Final residual = 2.05329e-06, No Iterations 0
smoothSolver:  Solving for Uy, Initial residual = 0.000213078, Final residual = 1.08943e-05, No Iterations 3
Pressure gradient source: uncorrected Ubar = 1, pressure gradient = 0.00334436
GAMG:  Solving for p, Initial residual = 2.14201e-05, Final residual = 1.80646e-06, No Iterations 3
time step continuity errors : sum local = 4.23809e-11, global = 1.30061e-17, cumulative = 8.03042e-17
Pressure gradient source: uncorrected Ubar = 1, pressure gradient = 0.00334436
smoothSolver:  Solving for omega, Initial residual = 5.73827e-06, Final residual = 5.73827e-06, No Iterations 0
smoothSolver:  Solving for k, Initial residual = 9.85216e-06, Final residual = 9.85216e-06, No Iterations 0
ExecutionTime = 3.11329 s  ClockTime = 3 s

Time = 1451s

smoothSolver:  Solving for Ux, Initial residual = 2.04826e-06, Final residual = 2.04826e-06, No Iterations 0
smoothSolver:  Solving for Uy, Initial residual = 0.000193484, Final residual = 9.79291e-06, No Iterations 3
Pressure gradient source: uncorrected Ubar = 1, pressure gradient = 0.00334436
GAMG:  Solving for p, Initial residual = 1.90337e-05, Final residual = 1.79698e-06, No Iterations 5
time step continuity errors : sum local = 4.36666e-11, global = 3.30544e-18, cumulative = 8.36097e-17
Pressure gradient source: uncorrected Ubar = 1, pressure gradient = 0.00334437
smoothSolver:  Solving for omega, Initial residual = 5.73922e-06, Final residual = 5.73922e-06, No Iterations 0
smoothSolver:  Solving for k, Initial residual = 9.81638e-06, Final residual = 9.81638e-06, No Iterations 0
ExecutionTime = 3.11519 s  ClockTime = 3 s

Time = 1452s

smoothSolver:  Solving for Ux, Initial residual = 2.04336e-06, Final residual = 2.04336e-06, No Iterations 0
smoothSolver:  Solving for Uy, Initial residual = 0.000172952, Final residual = 9.21756e-06, No Iterations 3
Pressure gradient source: uncorrected Ubar = 1, pressure gradient = 0.00334437
GAMG:  Solving for p, Initial residual = 1.66511e-05, Final residual = 1.1855e-06, No Iterations 7
time step continuity errors : sum local = 2.9408e-11, global = -4.50012e-18, cumulative = 7.91096e-17
Pressure gradient source: uncorrected Ubar = 1, pressure gradient = 0.00334437
smoothSolver:  Solving for omega, Initial residual = 5.74012e-06, Final residual = 5.74012e-06, No Iterations 0
smoothSolver:  Solving for k, Initial residual = 9.78117e-06, Final residual = 9.78117e-06, No Iterations 0
ExecutionTime = 3.11713 s  ClockTime = 3 s

Time = 1453s

smoothSolver:  Solving for Ux, Initial residual = 2.03856e-06, Final residual = 2.03856e-06, No Iterations 0
smoothSolver:  Solving for Uy, Initial residual = 0.000152671, Final residual = 8.41914e-06, No Iterations 3
Pressure gradient source: uncorrected Ubar = 1, pressure gradient = 0.00334437
GAMG:  Solving for p, Initial residual = 1.41095e-05, Final residual = 1.05273e-06, No Iterations 7
time step continuity errors : sum local = 2.62249e-11, global = 1.02556e-17, cumulative = 8.93651e-17
Pressure gradient source: uncorrected Ubar = 1, pressure gradient = 0.00334437
smoothSolver:  Solving for omega, Initial residual = 5.74098e-06, Final residual = 5.74098e-06, No Iterations 0
smoothSolver:  Solving for k, Initial residual = 9.74647e-06, Final residual = 9.74647e-06, No Iterations 0
ExecutionTime = 3.11908 s  ClockTime = 3 s

Time = 1454s

smoothSolver:  Solving for Ux, Initial residual = 2.03385e-06, Final residual = 2.03385e-06, No Iterations 0
smoothSolver:  Solving for Uy, Initial residual = 0.00013109, Final residual = 7.57981e-06, No Iterations 3
Pressure gradient source: uncorrected Ubar = 1, pressure gradient = 0.00334437
GAMG:  Solving for p, Initial residual = 1.18505e-05, Final residual = 9.43176e-07, No Iterations 7
time step continuity errors : sum local = 2.32286e-11, global = -3.9155e-18, cumulative = 8.54496e-17
Pressure gradient source: uncorrected Ubar = 1, pressure gradient = 0.00334438
smoothSolver:  Solving for omega, Initial residual = 5.74181e-06, Final residual = 5.74181e-06, No Iterations 0
smoothSolver:  Solving for k, Initial residual = 9.71222e-06, Final residual = 9.71222e-06, No Iterations 0
ExecutionTime = 3.12103 s  ClockTime = 3 s

Time = 1455s

smoothSolver:  Solving for Ux, Initial residual = 2.02923e-06, Final residual = 2.02923e-06, No Iterations 0
smoothSolver:  Solving for Uy, Initial residual = 0.000111221, Final residual = 6.78621e-06, No Iterations 3
Pressure gradient source: uncorrected Ubar = 1, pressure gradient = 0.00334438
GAMG:  Solving for p, Initial residual = 9.90469e-06, Final residual = 7.9074e-07, No Iterations 7
time step continuity errors : sum local = 1.95407e-11, global = -1.44927e-18, cumulative = 8.40004e-17
Pressure gradient source: uncorrected Ubar = 1, pressure gradient = 0.00334438
smoothSolver:  Solving for omega, Initial residual = 5.7426e-06, Final residual = 5.7426e-06, No Iterations 0
smoothSolver:  Solving for k, Initial residual = 9.67841e-06, Final residual = 9.67841e-06, No Iterations 0
ExecutionTime = 3.12301 s  ClockTime = 3 s

Time = 1456s

smoothSolver:  Solving for Ux, Initial residual = 2.02467e-06, Final residual = 2.02467e-06, No Iterations 0
smoothSolver:  Solving for Uy, Initial residual = 9.30342e-05, Final residual = 6.05733e-06, No Iterations 3
Pressure gradient source: uncorrected Ubar = 1, pressure gradient = 0.00334438
GAMG:  Solving for p, Initial residual = 8.23318e-06, Final residual = 9.47048e-07, No Iterations 5
time step continuity errors : sum local = 2.33072e-11, global = -2.71872e-19, cumulative = 8.37285e-17
Pressure gradient source: uncorrected Ubar = 1, pressure gradient = 0.00334438
smoothSolver:  Solving for omega, Initial residual = 5.74337e-06, Final residual = 5.74337e-06, No Iterations 0
smoothSolver:  Solving for k, Initial residual = 9.64499e-06, Final residual = 9.64499e-06, No Iterations 0
ExecutionTime = 3.12489 s  ClockTime = 3 s


SIMPLE solution converged in 1456 iterations

End

